864
10.077600 10.077600 10.077600
Ar -1.7137317 -1.9432342  0.9600763
Ar  0.2120341 -1.7081524  0.8620542
Ar  0.4453192  2.2770564  0.6344653
Ar  1.9418952 -2.1077865 -0.4783531
Ar  4.1661578  0.8107494  1.8366895
Ar  2.7411740  0.8786296  5.8265863
Ar  2.8620307  1.5679100 -0.8909439
Ar  2.2587310  0.7772970 -0.4203755
Ar  2.6247988 -1.2193225  1.1230889
Ar  1.1605272 -2.5617891  3.7584062
Ar  1.4161061 -1.3991668  5.6865461
Ar  0.5296750  2.3588044  5.5022568
Ar -1.0500906 -0.2216617  5.4222144
Ar  2.9835816 -1.7216751  6.7157843
Ar -1.5892972  6.3465302  9.2063055
Ar  0.5362799  1.3476496  7.3450251
Ar -0.6244803  0.8872738  7.2067323
Ar -4.0746934 -2.8636987 11.1829400
Ar -0.9006491  3.9357549  6.2949163
Ar  0.6397407  3.0861620  6.1576688
Ar -0.3526917 -2.6385827  8.7138975
Ar  3.4619619 -0.9810067  8.2951380
Ar  1.0884837  2.5612601  9.8413253
Ar  1.0204951 -3.8634150  9.9743125
Ar  1.2229225  3.7529439  1.3592751
Ar  2.5258342 -1.4686030  0.1751416
Ar -3.1871459  5.8187442  0.8199683
Ar  0.0898424  0.3835099  1.6290388
Ar -2.2995639 -1.0535862 -3.0849925
Ar  2.7007090  0.7339207  2.9198003
Ar  2.0183681 -0.3567650 -1.4163474
Ar  2.1097895  3.5186692  0.3073002
Ar -3.8711029 -1.1353616  2.3249243
Ar  3.6797787  1.7788736  4.7880664
Ar  2.2033347  1.7758744  0.3990267
Ar -1.4866892  4.4128211  4.8677816
Ar -2.7725137 -2.0436769  7.1671185
Ar -1.7940796  2.0290242  5.9895126
Ar -1.2313931  1.6828058  7.8486715
Ar -1.5868931  6.3584347  7.0051334
Ar -0.1840252  1.6873903  5.0114484
Ar -0.5740822  3.2582357 12.3605328
Ar  1.1819129  6.2285267  5.4752276
Ar -1.4945420  2.8091971 10.4506104
Ar -3.0006739  2.8585337  6.5828165
Ar  0.1971637  6.6313635  9.4775129
Ar -0.8520183  2.0004825  9.7739545
Ar  0.0959886  2.8686560  9.2002887
Ar -1.8710712  2.4064148 -0.6864408
Ar  0.0922175  3.6175357 -0.2719557
Ar  0.1309390  5.8755745  5.9813283
Ar -1.5337013  3.7480991  2.6845508
Ar -0.6180648  5.3100875  1.7636661
Ar  3.7944388  6.5546023  2.4392635
Ar  3.3574106  0.8506955  4.8237805
Ar -4.2695533  6.2287075  1.5396022
Ar  1.7659423  0.1743071  0.6170967
Ar  3.8317404  3.2210143  3.8929798
Ar  2.8621600  2.4446927  4.4492198
Ar  0.8817888  6.4289806  6.5515979
Ar -0.2026822  4.0296586  3.7796183
Ar -0.4388020  5.5530627  7.6814938
Ar -2.2045954  3.5733482  4.5133623
Ar -0.9943108  4.8990575  8.1056228
Ar -0.5905817  3.9436741  5.2329226
Ar  0.4131894  4.0634194  5.7569865
Ar  1.9916018  4.5543568  7.1270394
Ar  1.5872384  1.6970290  8.1355216
Ar -1.7440621  4.4671434 11.9898761
Ar -1.7854049  5.0050149 14.1887637
Ar  0.6654235  3.2708365  5.1851933
Ar -2.1952363  2.3964964  8.2843619
Ar -0.9596364  4.6781643  2.5701719
Ar -1.7126147  8.2004095  3.9414319
Ar -0.6482965  6.0836040  2.7017938
Ar  1.4956328  5.4275476  2.5224385
Ar  0.0471483  6.5879278  3.2828485
Ar  1.6690804  2.7527408  6.2720050
Ar  1.5945000 10.6194535  5.8558837
Ar  0.1992879  7.7019229  2.9524679
Ar -2.1102489  5.0303981  2.8237501
Ar -1.6808373  5.4849900  6.3699813
Ar -0.7985564  3.2951695  3.5151518
Ar  0.8949420  3.2326038  0.5179765
Ar -0.6238286  6.1662370  9.9256879
Ar  5.1957039  7.4809333  3.9663875
Ar -1.7319142  6.9081704  3.0935148
Ar -1.1204146  7.1797665  6.5799099
Ar  7.0091841  5.0326014  9.3284650
Ar -1.4073811  4.2443823  9.0802638
Ar  1.2854355  6.6495118  7.9311611
Ar -1.7121004  6.5479759 10.1477637
Ar -1.0594044  3.8026888 10.2187513
Ar  1.3033806  5.2846371  7.4753681
Ar  3.0481066  3.8892545  7.1701267
Ar -0.1936348  6.2339815 10.8169344
Ar  2.6197443  6.1993106 -1.0075268
Ar  0.7698076  6.2128999  1.1301090
Ar  2.2803368  5.1996148  1.8230327
Ar -2.3803541  7.9753326  2.9841552
Ar -0.7412507  7.2849151  3.3829056
Ar  2.9805227  2.7706158  2.6748167
Ar  0.5004308  8.7298133  3.0369449
Ar -0.5621433  8.6159322  3.5737833
Ar -0.5313601  5.6154633  3.5117079
Ar -1.4151675  6.8600023  5.5430736
Ar  4.0907948  7.7148980  6.4342957
Ar  1.0791977  7.3171274  9.7145951
Ar  1.6173935  6.9426952  4.8911433
Ar  0.7716393  5.8472963  3.4625678
Ar  2.6800694  7.2951634  4.7292349
Ar  0.2324480  7.4270678  6.9441778
Ar -0.9730222  3.7344495 11.4629612
Ar  2.8370116  5.6127729  5.9359633
Ar -0.0224449 10.4706035  8.9431081
Ar -3.7962601  6.7141539  9.0729539
Ar -1.6318390  4.8072027  7.1719792
Ar  2.6837028  5.0570250 10.1093046
Ar  2.2507452  8.5029910 12.3874767
Ar  0.1966722  8.2625501 12.1754766
Ar  3.5418154  7.1483738 -2.8807483
Ar  2.6586127  8.0475281  1.5842450
Ar  5.9460881  7.9874221  0.4732121
Ar  0.1551858 11.7807933 -0.7154482
Ar -2.3260698 10.5740467  1.5358194
Ar  4.1646166  8.0056108  3.8912650
Ar  1.2492294  8.0188064  4.7574274
Ar  4.3331604 12.4666411 -0.1542403
Ar  1.1535300  8.0201119  2.6393270
Ar  2.6403462  6.0043808  3.9065145
Ar  1.1323725  9.6880544  5.5851650
Ar -1.3436950  7.3215022  1.5935931
Ar  3.2981261  5.3339906  3.2704949
Ar  0.2053926  7.5603025  4.6371969
Ar  3.2373958  5.4631717  8.4487563
Ar  1.0168489 12.9612956  4.3916397
Ar  0.3277494  7.0463867  7.8486075
Ar  2.7063404  9.1088889  9.4013326
Ar  0.9807205 10.0910028  8.3724294
Ar -1.2575710 10.3243222  9.6963385
Ar  1.6515873  6.5571365 10.9250540
Ar  5.1848637  8.1900617  7.4880116
Ar  1.6267883  9.3552440 10.1389832
Ar  3.4075138  7.5427745 10.9524238
Ar  1.9811536 -0.2846275 -3.8430937
Ar  3.8414674  2.9681210  1.5835851
Ar  1.1651965  0.5656616  1.9434088
Ar  1.3489875 -2.1066226  0.4084800
Ar  0.0369345  4.8319407  3.0845884
Ar  4.0768544  0.7693752  3.0687769
Ar  4.4254967  1.2217888  0.0867563
Ar  1.6892477  3.8198616  3.5457822
Ar  0.6884430  2.0702886  6.4873142
Ar  1.4327916  1.7857425  3.5769490
Ar  4.4125119 -1.2859363  6.1850958
Ar  2.2100348 -1.8718212  3.4131552
Ar  2.7348327  0.5372837  6.7872199
Ar  5.3550568  0.7480033  8.1690955
Ar  1.1234606 -0.2641084  1.1129866
Ar -2.2700353  1.9208129  4.0612355
Ar  0.7568646  6.6866504  4.0454349
Ar  3.4366005  0.8690709  8.4433655
Ar  3.7030154  4.9134198  5.6094101
Ar  1.9828450  1.9036353  4.5251544
Ar  6.0665118 -2.3823096  9.3802075
Ar  1.6261422 -1.3742894 11.2272485
Ar  0.2822798  4.2923032  4.7865029
Ar -1.2991915 -1.5981993 10.1829092
Ar -1.6664774  1.4418137 -1.0651675
Ar  2.7876189  2.5114763  0.0502130
Ar  1.8449286  1.6792206 -0.8218618
Ar  4.9919586  2.3104810  3.3725066
Ar  0.2737520  0.7569695  2.5135653
Ar  3.5692674  2.3953516 -0.9594343
Ar  3.0396313 -1.7203047 -1.1903699
Ar  0.4704888  1.4285012  1.6526891
Ar  3.5311968  1.3187683  6.5595909
Ar  3.0547331  0.7195270  0.2932997
Ar  3.9645535 -0.5866143  1.2891161
Ar  0.8935610  3.7364925  2.8515614
Ar -2.6171664  2.7712557  5.6131556
Ar  1.8086848  1.3337575  5.2481243
Ar  2.1382656 -0.6120146  5.1706418
Ar  0.7720785  5.0546862  5.2187340
Ar  0.8977710  3.7729802  4.0609942
Ar  4.9490220  2.0053481 10.6387604
Ar -0.4211035  1.4320834  1.8900533
Ar  0.9387245  2.6922632  7.3765772
Ar  2.8335406  2.0252765  8.3215629
Ar  0.0163900  3.6541952  6.7832476
Ar  1.8093416  2.4268371 11.2675894
Ar -0.2262874  4.1477085  8.5827834
Ar  2.3030998  3.6975336 -2.1857191
Ar  3.8702246  3.5609065 -0.9476849
Ar  2.4580024  4.5983730 -3.8316721
Ar  7.0136873  0.6646609  3.3217224
Ar -1.4564593  5.7824921  3.4227564
Ar  2.3844526  0.7032316  1.7154806
Ar  3.1186957  1.4666823  1.1147356
Ar -1.1929338  4.2560951  3.5000315
Ar  4.3714897  5.9152585  5.0121953
Ar  0.2138864  4.6823229  6.3642036
Ar -0.0684024 -0.4037365  2.1933403
Ar  1.7386713  4.3033793  4.5503131
Ar -0.9231770  5.4715580  9.2215849
Ar -3.1609684  3.8638857  6.6464399
Ar  3.6237511  1.8891363  5.8062936
Ar  2.1915184  6.3104610  6.4271140
Ar  0.7950218  1.8265049  2.7998234
Ar  3.9580112  3.4455532  6.7073526
Ar  2.4920040  2.3928880  3.4550058
Ar -0.8598036  3.9770425  7.7858783
Ar  3.5390925  5.2397431  4.6121675
Ar  3.5202658  2.3944230  7.6774139
Ar  4.5269240  4.3913114  6.6071600
Ar -0.7370349  5.3321415  6.4910348
Ar  0.1852599  5.4685332  0.0722458
Ar  0.6846916  4.4079432 -1.0918092
Ar  2.1490644  7.4575113  2.7035763
Ar -0.4587448  7.0054409  2.4692925
Ar  0.9407467  4.5518846  0.2513259
Ar  6.7200681  5.9690581  5.8684175
Ar  1.4291765  1.5734971  1.7409450
Ar  0.4541071  5.4397162  2.4635103
Ar  3.3452467  1.0826137  2.2290748
Ar  4.8127719  3.2387515  4.1009290
Ar  0.5651966  4.9112072  3.8439595
Ar  2.7884225  3.5608659  4.7585538
Ar  4.4881658  6.6761272  6.3912515
Ar  4.5445762  5.1785134  7.4441578
Ar  1.1925012  6.4684303  2.7494760
Ar  1.6852103  5.3176409 10.8327472
Ar -0.3396541  4.6180431  7.2761510
Ar  1.9971272  4.5695637  8.5474788
Ar  3.4704127  4.9453615  9.3031204
Ar  4.2090067  6.3525486  7.6405298
Ar -1.9835688  3.8504968  7.9670603
Ar  0.1026172  7.1691252 10.9419127
Ar  1.1252516  5.1777217  8.4423519
Ar  2.4955736  5.2082684  9.1310437
Ar -1.2539652  9.2419988  3.2332735
Ar  5.1918439  5.0686927  3.5636586
Ar  1.6369505  6.8935328 -1.1646052
Ar  2.4943107  8.7539719 -2.1195167
Ar  2.5922742  2.1532782  1.6106708
Ar  6.4938544  6.1809186  4.0867838
Ar  4.3853378 10.7261151 -1.5879208
Ar  1.8783400 10.3036514  3.2069388
Ar -0.7906475  4.9300128  0.6781806
Ar  4.6820634  3.8881826  5.5767498
Ar  3.9416376  7.3345297  5.0982223
Ar  3.2495936  3.5598914  2.1112991
Ar  2.7678853  7.3665843  9.1761451
Ar  3.6002414  5.3698723  7.4655763
Ar  4.3316625  6.8463480  4.3157173
Ar  1.8570539 11.0891262  6.8125404
Ar  2.2161042  6.1324453  5.0750473
Ar  4.8921022  4.2495179  8.0654311
Ar  1.5410890  6.9726917  5.9804165
Ar  0.7239527  7.5316464  8.8092033
Ar  1.1625115  5.2695344  9.5401861
Ar -0.1091023  4.2522213 11.8616186
Ar  4.2556803  8.5104425 12.7953572
Ar  1.6913194  7.0183120  6.9636731
Ar  1.2474156 10.8987371 -0.7175224
Ar  2.5110816  9.3838498  2.8537652
Ar  4.3127975  4.4462718 -1.1908370
Ar  5.4164808  8.4101226  3.1832058
Ar  7.1199909  6.4857778  4.8273732
Ar  4.9926852  9.8770990  1.5972324
Ar  4.1678958  7.0550187 -0.8614070
Ar  4.3156992  8.0826114  0.2966879
Ar  0.3701484  8.4938984  6.0752523
Ar  2.1978181  9.7069147  4.0664147
Ar  6.5527520  4.2435361  7.5655055
Ar  3.0329717  7.5041362  3.1712468
Ar  3.1152518  9.7077343  5.1553636
Ar  1.2960609  9.4224390  3.7568650
Ar  0.7835360  9.6020614  7.0737680
Ar  0.8592092  9.9824649  4.4080042
Ar  5.2070833  8.0478616  9.6031976
Ar  0.6960423  6.3072126  8.7004222
Ar  3.0021289  6.6983505 10.1260321
Ar  1.6513831 13.7953463  5.3045393
Ar  3.9502323  7.3262887  8.1830347
Ar  2.0783048  5.9331021  8.2479405
Ar  3.7100479  9.1355178  6.9956607
Ar -1.1978777 10.7683444  8.1097944
Ar  4.6052447  1.7635856  2.2483835
Ar  9.3076676 -2.5930768  0.5919578
Ar  2.0472710 -1.4226024 -1.1622818
Ar  5.2298411 -0.1817185  0.2890799
Ar  3.5280725 -1.1881002  2.0711610
Ar  2.3457498 -2.5320315  0.8148034
Ar  3.2017910 -0.1738299 -1.0644948
Ar  6.6090347  0.6384875  4.3453720
Ar  3.3392914 -1.0120316  5.8884189
Ar  3.1416494  0.0160068  2.1834628
Ar  6.2046497 -2.7750218  4.4433481
Ar  3.1131078 -0.7494457  4.0993515
Ar  3.2859749 -1.5227017  3.3106129
Ar  4.7984820  0.8151696  6.2182682
Ar -0.7444000  0.7190776  5.7692487
Ar  1.7257394  2.6289370  5.2730869
Ar  6.5373288 -1.1204740  4.9243201
Ar  2.2305747  0.0486378  7.7735512
Ar  5.3914638  1.6367318  4.9596399
Ar  3.0166859 -2.1596745  7.5915663
Ar  5.1567962 -0.6901562  8.2829034
Ar  4.5823685  2.6127461  8.8708317
Ar  3.6407502  1.9426617 11.8878483
Ar  2.3176632  0.6887425  8.5388930
Ar  4.6564140 -0.9997711  0.6654349
Ar  3.4510114  1.6430091 -0.0309490
Ar  4.8451122  2.8780493  1.2281398
Ar  2.0878445  3.5346980 -1.1101078
Ar  2.2781511  3.5235399  2.7480333
Ar  5.3825290 -4.9643676  2.5526350
Ar  1.7429784  2.3134924  2.3110939
Ar  2.4541315  5.6441543  2.9745334
Ar  3.3160425  0.5513968  3.6603836
Ar  4.1988767  2.7590805  5.9291458
Ar  4.2275226  3.8004057  1.9903481
Ar  1.4265576  5.5732409  4.3101029
Ar  1.6125754  0.4354745  4.1646806
Ar  3.9281253 -1.4805442  5.2797284
Ar  6.3256876  2.0324412  2.0717396
Ar -0.9750144  1.0246411  0.1418599
Ar  5.0376131  3.1488814  6.3866681
Ar -1.5541468  4.5380581  5.8319151
Ar  2.6590138  1.7890998  6.3264356
Ar  1.5946965  5.3104852  6.3548394
Ar  3.4840918  3.7504906  5.7976014
Ar  3.3850385  3.1143191  9.8489282
Ar  5.3043546  0.7866765 11.3039346
Ar  7.2647744  1.8536515  9.0821722
Ar  3.8053685  0.5376923 -2.7237385
Ar  3.6803554  4.3652332  2.6784827
Ar  3.1545048  3.2775584 -1.6308337
Ar  6.7807713  5.0069426 -3.5570905
Ar  5.0675125  3.9066309  1.3908227
Ar  2.2709641  3.1712584  1.6578938
Ar  3.0141348  3.1297418  0.8817310
Ar  2.4228614  1.6226626  2.6289007
Ar  2.7891755  3.4677399  3.6196255
Ar  6.0525288  2.7287455  6.4855489
Ar  5.7670761  2.7183847  2.5907730
Ar  2.7483209  3.0576243  5.5350442
Ar  1.8297514  5.0139747  5.3200365
Ar  3.7895859  2.2574307  2.8856214
Ar  4.6303984  4.8328160  5.1955568
Ar  1.4334968  4.8926100  3.3246744
Ar  8.8610730  2.1091676  3.8870321
Ar  1.2010972  2.6772349  3.2675345
Ar  3.5744596  6.7706057  5.8207555
Ar  2.6971068  5.2157963  7.0327455
Ar  3.2489033  6.1668625  6.7795241
Ar  4.6631763  3.4466036  7.3750233
Ar  5.2739977  6.0306667  8.0752574
Ar  1.9323365  6.8466679 10.0670593
Ar  2.1808608  7.7897515 -3.1142276
Ar  4.2709863  2.4400951 -3.1444190
Ar  7.6344592  4.4378056  0.2466913
Ar -0.3806025  4.6385786 -0.5247169
Ar  8.3844856  2.8270869  2.7643148
Ar  7.3671199  5.8239079  6.6584982
Ar  4.3140834  3.5868654  0.6246629
Ar  3.7036282  9.6417778  3.1273655
Ar  1.4818517  3.4530317  6.9718728
Ar  3.7894158  4.2361147  4.4875845
Ar  1.5303729  4.2251827  2.2426881
Ar  3.5224979  6.4628658  3.4399965
Ar  2.4476297  4.6203941  3.5192191
Ar  7.1612510  3.4106092  8.0178548
Ar  5.0390945  6.7303638  5.0191327
Ar  5.1053751  5.1151663  6.5494877
Ar  2.0544646  2.9364059  4.2249723
Ar  1.3428006  1.4988778  6.0777026
Ar  7.7763327  4.3033059  9.2551655
Ar  5.6000046  6.4022692  5.9904426
Ar  6.0491946  6.3847595  5.1633621
Ar  5.7767294  3.5791003  7.2816183
Ar  5.3698126  1.3832218  7.1489638
Ar  2.7676655  6.7110866  7.8313168
Ar  3.7857861  7.7566192  2.0852124
Ar  4.2615006  5.7261392 -1.5357991
Ar  6.1418572  6.4065261  0.5340231
Ar  3.9793728  6.0147959  0.9774143
Ar  0.3029089  3.4127642  1.3372418
Ar  4.1609194  7.0016203  1.4542043
Ar  4.1683240  5.0822280  1.5788544
Ar  0.7963876  7.2433914  2.1014524
Ar  2.4702714  5.0988845  4.5249125
Ar  4.1039084  9.0546867  4.3842361
Ar  4.4104026  4.1118388  3.3558718
Ar  2.6444111  7.2591599  6.0399938
Ar  3.2478813  6.3821652  4.8240003
Ar  4.6237047  7.2565197  7.1466569
Ar  7.7017246  6.2588589  7.7036808
Ar  1.8674902  9.7160380  1.9326126
Ar  5.4353165  7.0524064  3.0873881
Ar  6.9162883  8.2128956  9.9749863
Ar  6.6888171  8.4682505  8.9105588
Ar  5.6767272  9.9097549  7.5285508
Ar  3.5155964  6.3025121  8.7980700
Ar  3.9897067  1.7173434  8.1978870
Ar  3.9013120  5.7261789  6.2939075
Ar  0.4307175  6.0887518  7.7987268
Ar  2.0111743  6.9607813 -6.1699946
Ar  5.9179654  8.1902197  1.4495697
Ar  5.6304047  9.1747114  0.8414127
Ar  3.4377732  4.4131937  3.6422079
Ar  2.0242529  5.8443661 -0.3624655
Ar  3.4788351  5.6720651  2.2616688
Ar  3.0078148  5.6908188  0.9811865
Ar  7.2675043  7.0974635  2.7539481
Ar  2.6981905  6.4844968  2.4242762
Ar 10.0790050  9.4078049  0.8828263
Ar  4.9145682  5.9084202  2.1409691
Ar  5.4545714  7.5766277  4.8976109
Ar  2.1327783  7.7295209  8.4198837
Ar  2.5069262  9.1371652  7.0118117
Ar  8.0150366 11.2392708  7.6685243
Ar  5.1370986  4.2249325  4.2286754
Ar  4.5293722 11.4609945  5.4734367
Ar  3.3687574  7.9036091  9.9184082
Ar  1.3885109 11.9529331  7.1753468
Ar  4.9565725  7.9564942  8.4597931
Ar  3.3192230  7.2394789  4.0466414
Ar  6.3639861  9.9109464  9.6351687
Ar  7.4330148  9.9642131  9.7436089
Ar  1.7435202  4.3794820  9.6179869
Ar  5.3960049  1.9712133  1.6546837
Ar  5.4192945  2.4592282  4.4859646
Ar 10.1404953  1.3672816  0.5235728
Ar  3.8452789  0.0353567  4.5240144
Ar  3.5657283 -1.1553283  0.6131994
Ar  6.5914164  1.0466100  2.4792902
Ar  5.9201407  1.7208357  0.6515577
Ar  4.9170441  0.3646611  2.3958827
Ar  4.9314560 -0.1749889  4.6616261
Ar  7.7023674  0.4581054  3.9982613
Ar  4.7146228 -0.0954381  3.7161517
Ar  6.3010232  4.1511298  1.3404175
Ar  4.4208115 -0.6065088  2.3193620
Ar  1.9041238  2.7556282  8.1470965
Ar  7.9195649 -0.0172172  4.9038464
Ar  4.9902531  1.9179982  6.2175962
Ar  3.2161809 -2.1566734  5.5078573
Ar -0.2974841 -0.8407044  5.7265444
Ar  9.6964007  0.4828098 10.8746764
Ar  4.3089366 -0.5577769  5.4670785
Ar  6.5611895 -0.6730370 10.4828180
Ar  4.9589339 -0.8408975  6.9503858
Ar  3.1598740  1.5280006  7.5722833
Ar  4.2414717  1.5422606  9.1707579
Ar  4.1463146  1.4296036  1.0700456
Ar  6.0079300 -0.0849419 -1.4453077
Ar  6.6716122  0.7950378 -0.1019096
Ar  4.4301922  0.3870404  0.8430280
Ar  4.4214620 -3.9640399 -0.4559988
Ar  2.8258837  4.1639033 -0.7915555
Ar  6.7613355  3.8893139 -1.1467794
Ar  2.9030567 -0.3387668  0.8693775
Ar  6.5749109  2.1125680  5.9535178
Ar  2.3487796 -1.2462240  6.0981943
Ar  7.0459012  1.8494005  0.9016427
Ar  5.8524821  4.1698215  5.1323426
Ar  3.1514376  2.5544662  6.6768815
Ar  5.9700807  0.6140171  7.0370025
Ar  7.6223574  5.2891698  5.7104309
Ar  4.9295412  2.3259582  8.0164879
Ar  1.3747969  0.7684578  7.5876316
Ar  2.9243338  4.1232268 10.4955549
Ar  4.1475528  3.4003593  4.9456701
Ar  3.7453787  4.3842950  7.8630905
Ar  2.4762052  2.2493235  7.4341595
Ar 10.1263018 -0.8742902  7.7384670
Ar 10.0177557  0.1383421  7.5065295
Ar  3.5287866  4.7294008  6.6791143
Ar  8.1730702  0.3655358 -1.2782825
Ar  3.3351621  0.7355695 -0.6233245
Ar  7.4172103  2.5290672  0.2918416
Ar  5.9050831  7.8423832 -1.7634664
Ar  5.1773663  6.5508811 -1.0205839
Ar  5.5068036  2.8939210 -1.6578461
Ar -1.1376694  2.7960635  1.5788521
Ar  5.9819928  0.2009407  2.1960887
Ar  5.8964349  4.4188090  6.2679514
Ar  6.0430669  3.3366989 -0.5891783
Ar  6.3008035  5.2836165  1.5995986
Ar  2.4708772 -0.1771241 -0.2668723
Ar  3.5409678  0.3095535  6.0136043
Ar  2.3413018  0.5001283  4.9323121
Ar  8.0873888  2.4883673  7.2717612
Ar  1.1399699  3.6837403  9.6802774
Ar  4.9897196  6.0086943  7.0267866
Ar  5.1234107  0.0251777  9.1422602
Ar  6.1777000  9.0157603  8.1631779
Ar  2.4479934  3.5386506  6.4499669
Ar  7.7201363  1.8370496 13.0023375
Ar  6.4439493  1.5007315  8.6806763
Ar  6.0274608  2.6938145  3.7866135
Ar  6.7407907  4.0482455  4.4062099
Ar  4.5395047  2.3453780 -5.0740760
Ar  6.9872079  5.2944027  2.5415832
Ar  6.9447669  7.3341266 -2.3593563
Ar  7.3997348  4.4981582 -1.8354442
Ar  7.4879286  5.2802737  7.4905458
Ar  6.5779511  2.6840855  7.4657670
Ar  7.9483653  6.2210741  5.8984849
Ar  2.2932126  4.0967513  1.5644658
Ar  6.2950882  3.5537569  3.0560274
Ar  7.6392698  4.5558549  4.6998087
Ar  5.0261377  7.0367185  8.1730035
Ar  3.1707260  7.0538710  1.8332862
Ar  7.0901838  4.2635169  2.9256372
Ar  8.1108810  9.4201827  7.9059118
Ar  7.4921488  8.4459720  4.4263429
Ar  6.8852480 10.6428180  7.4981530
Ar  6.7754165  6.2412074  7.5642828
Ar  5.9278277  1.3105843  5.9738714
Ar  7.3109426  7.8053393  8.6070230
Ar  5.9405327  1.9869363  7.9589396
Ar  6.2962720  1.5926182  7.0238054
Ar  8.0391417  0.1754193  7.0811061
Ar  8.8299541  6.6961028 14.5475082
Ar  5.9622224  3.6521347  8.2332116
Ar  6.8489332  6.9895166 -0.0724987
Ar  6.4246224  4.8262329  0.5680876
Ar  5.5764367  4.6987420 -2.5063712
Ar  4.8897177  5.8472012  1.2251226
Ar  5.2512153  6.9184563  1.9598373
Ar  3.8714782  4.1744038 -0.1250377
Ar  5.1077096  4.1126284  2.5198933
Ar  4.3212665  2.3337177  3.9805088
Ar  3.3490079  8.2517627  4.3180211
Ar  4.3232559  9.8714925  6.7456380
Ar  9.1257414  8.7201445  4.9915145
Ar  6.2985437  7.0330823  3.4213884
Ar  6.1981131  7.8356753  7.4087803
Ar  5.9040739  9.5569192  4.2080143
Ar  9.2521424  7.9499681  4.3578144
Ar  5.7875690  7.3871674  6.3302251
Ar  5.6180665  6.9827838  9.9037909
Ar  8.6473412  7.9080910  7.3917390
Ar  5.9155520  8.3602584  5.4053830
Ar  6.0685427  4.9238985  9.4960392
Ar  4.5466609  9.1762670  9.3323349
Ar  8.8976523  8.7740674  7.8493536
Ar  6.7556895  5.5157782  8.2609811
Ar  5.5439173  6.9148088  7.1379664
Ar  5.6479378  8.7150369 -1.1705801
Ar 10.7312658  9.3971394  0.0705164
Ar  7.1543346  8.0029854  0.8181037
Ar  1.2599516  4.4356874 -4.0599016
Ar  5.6718840  5.4409823  0.6732891
Ar  3.9154247  8.4103866  1.3059235
Ar  3.4869755 10.4606352  1.2938463
Ar  3.9914747  7.0267029  0.2239610
Ar  4.6367922  6.3188333  2.9572590
Ar 10.1297840  8.5857144  4.9743662
Ar  5.2515211  5.4895892 -0.4159366
Ar  5.2689401  5.3395890  4.6089546
Ar  8.4116704  7.9113642  5.5704988
Ar 11.6473561  9.2697376  7.6470452
Ar  5.4133713  9.2447381  5.3458402
Ar  4.3965102  5.6413957  3.9683614
Ar  3.8906222  8.3008867  7.6378240
Ar  3.5642650  8.8642373  9.6272832
Ar  1.9899412  7.7597893  5.3924347
Ar  3.8347093 12.4497922 10.7874528
Ar  5.9726012  8.9700758  7.2028723
Ar  4.8849719 10.4475853  7.3429115
Ar  7.2460968 11.6472946 10.0352704
Ar  6.3504294  5.9429940  9.8137975
Ar  9.0942220 -0.3075787 -2.9201255
Ar 11.6706887 -1.1635290  2.8559041
Ar  7.9105769 -1.7951976 -0.4275952
Ar 11.4567506  1.3920263  0.0102988
Ar  6.9357599 -1.5070582  1.7171114
Ar  6.8567251  2.4121129  2.9952947
Ar  7.2475964  1.3552208  1.8557048
Ar  8.8625488  0.7861031  1.3869094
Ar  5.6121987 -5.8873587  3.3637324
Ar  5.4696537  0.6486132  5.1720025
Ar 11.3220102 -0.4283994 -0.7129490
Ar  5.8783527  3.5170506  4.2337482
Ar  7.6476356 -2.8592352  5.3973678
Ar  3.8218828  3.3889168  2.9065564
Ar  5.4603418 -0.6367215  2.8519460
Ar  6.2630557  2.4809919  9.1029754
Ar 10.7589647  1.2579033  8.4820122
Ar 10.2208072 -4.8771516 11.1770888
Ar  8.9549342 -0.4181517  8.4869270
Ar  7.6982104  0.3419004  6.0026505
Ar 10.3708026 -0.6920921  9.0059990
Ar  8.9325834 -0.6647579 10.5961279
Ar  9.7934514  1.6706408  8.3420596
Ar  7.2720646  2.9435093  9.3701058
Ar  9.6276485  3.2169294  0.6038885
Ar  9.2900979  1.0367287  3.7596979
Ar  4.1073545  3.0368288 -1.9823493
Ar  5.7528771  3.4284939  1.9753190
Ar  6.9956223 -0.2377886 -3.5699740
Ar  6.8695744  3.6025213  0.8592383
Ar  8.2455629  0.0139504  0.5542036
Ar  4.8985615  3.5472692 -0.2785879
Ar  4.5560751  1.4940104  3.5358972
Ar  4.6934030  0.9767215  4.3737596
Ar  7.1574491  3.6880942  5.2628630
Ar  8.9012980  3.5685106  4.4573230
Ar  5.6956454  0.9776020  2.9175746
Ar  6.8174407 -1.5401394  6.2840153
Ar  7.3877451  1.8373990  5.3531148
Ar  5.5316447  0.4350553  3.7398906
Ar  6.3470574 -0.1472650  3.0757679
Ar  5.2717170 -0.2315915  6.1616896
Ar  9.8019410  2.5459729  6.5539664
Ar  5.2086066  2.4539755  7.0934259
Ar  5.3262839  0.8953039 10.3288784
Ar  9.2526165  3.1607466  9.1918079
Ar  4.3190948  0.4725497  9.5221975
Ar  4.1224573 -0.2526014  8.6337610
Ar  2.6666229  4.9034035 -2.1912494
Ar  5.9470871  5.7435202 -1.2827948
Ar  6.8381663  3.9861587 -0.1219055
Ar  7.3206534  4.7001175  1.3494636
Ar  3.5111942  5.7727025 -0.1590713
Ar 11.6813252  1.1425669  2.8528426
Ar  5.6163362  5.2475948  5.5900292
Ar  4.7875721  7.7095980  1.3748521
Ar  5.3346996  2.4019135 -0.4639390
Ar  4.3851475  1.3028344  7.2306738
Ar  3.7127629  4.1593511  1.1835312
Ar  9.1122545  6.1641229  6.0575985
Ar  6.2398456  0.2792720  6.0274716
Ar  7.4594389  5.4920964  3.5001388
Ar  8.9390463 -0.0860099  2.3532315
Ar  7.1452874  1.7310818  7.9013285
Ar  2.7622150  1.7039233  5.3252988
Ar  8.8975016  2.9575926  6.3753156
Ar 10.0123222  2.9858142  4.4386919
Ar  8.4030723  3.6174340  6.9903390
Ar  1.2792827  3.8691907  7.8999623
Ar  6.8591975  0.9348593  6.4432274
Ar  7.6327165  6.0265792 10.2630810
Ar  6.1757021  4.7302770  8.5351997
Ar  6.9024461  6.2002266  1.8620951
Ar  5.5565427  4.1970972 -0.9305514
Ar  4.1404257  5.0613425  0.0275878
Ar  5.4461390  3.3057170  0.4224924
Ar  6.4388410  3.4173230  5.8993042
Ar  8.0619936  2.5677835  1.1838272
Ar 11.0369883 12.0574155  4.6818303
Ar  7.0967809 -0.2307899  2.3985311
Ar  9.8369817  3.9941499  2.8044331
Ar 10.1479754  9.7264061  4.9790021
Ar  7.2486387  8.0469505  5.3110493
Ar  2.8696914  4.3623377  5.2339917
Ar  8.9447513  7.9008333  2.5993993
Ar  9.8756274  6.9883051  6.0396416
Ar  6.5661687  2.8659846  4.8101764
Ar 10.5396630 10.3688414  5.5218560
Ar  9.9948269  2.5603798  3.5097519
Ar  7.7053543  4.2575029  7.1536940
Ar  6.7962090  4.6040635  5.4325876
Ar  6.5574406  7.2686758  5.5755744
Ar  8.5279076  2.1713785  4.9818969
Ar  5.4301290  3.3085512  5.0916959
Ar  7.7664884  1.4231103  6.6831524
Ar  3.6446560  9.8696181 10.1720480
Ar  6.2790846  4.4261678  2.3104387
Ar  5.0977742  5.0511906 -1.4145897
Ar  7.7277301  6.0368244  2.7037674
Ar  8.6980668  5.5381210  2.2832247
Ar  3.1488745  4.5234991  1.7877524
Ar  6.2078037  7.9717604  2.3748035
Ar 10.7682721  9.0495356  1.6519303
Ar  8.0877352  7.2121862  0.8426808
Ar  5.5288262  8.6036312  6.3039863
Ar  6.7402732  6.0119914  3.1779177
Ar 10.2469507  9.6435584  3.4437741
Ar  7.9251481  7.0921903  7.9338782
Ar  7.4751915  2.6542050  4.6019867
Ar  5.7438714  6.1078903  2.9916151
Ar 10.7859358  7.5464062  5.9286138
Ar  9.0942239  7.0546678  9.3834317
Ar  7.9157462  7.2216887  9.2952948
Ar  9.0699628  8.6343793  9.1708363
Ar 10.2393615  6.6115042  5.1771212
Ar  6.1773561  6.7381527  8.1207583
Ar  7.1877718  6.4166743  9.2211046
Ar  8.4205168  7.5437934 10.0261881
Ar  5.7679973  4.2756790 10.2036115
Ar  9.7334673  6.1066473  8.5577518
Ar  4.8995903  6.8958288  0.7746431
Ar  4.8516452  4.6410021  0.6523295
Ar  9.6273634  8.8622907  2.5827917
Ar  9.0020759 11.2981306  2.5572523
Ar  7.3238713  9.7173626  1.2147022
Ar  4.9680557  8.6800577  1.6944518
Ar  8.3730248 11.2659710  3.3037478
Ar  7.2893954 10.7912162  5.1254752
Ar  4.3455756  5.2264953  2.6503919
Ar  8.1782745  9.0109379  5.1226532
Ar  4.7249303  8.3544073  4.7656243
Ar  4.9726293  7.8167464  2.4403784
Ar  8.8892719  6.9254126  8.4447582
Ar  8.1723208 11.3031566  4.7826588
Ar  8.0891302 11.5603907  1.1961500
Ar  5.1158969 11.7419687  8.8260078
Ar  4.3338286  9.4685714  7.7864629
Ar  7.9002300  6.6428252 11.8935434
Ar 12.4860390 12.5482619  9.1758202
Ar  3.2048339  9.8851387  7.5635652
Ar  6.9916626  9.5952041  7.5950146
Ar 11.1357011  7.3959169 11.2182011
Ar 11.2168456 13.3990698  8.7677581
Ar  7.2935936  9.6015064  8.6674103
Ar  9.9480748 -2.2875309 -0.4507487
Ar  9.9226758 -1.3374615 -0.0980078
Ar 14.0831995 -2.6566038  3.0408775
Ar  9.3423369  1.0292178 -0.9027276
Ar 10.1026347  0.3860028  4.1705941
Ar 10.4737346  2.7588595  2.5719276
Ar  9.8880945  1.5226496  3.0396953
Ar  7.7379948  5.6223010  1.7833660
Ar  6.5421573  1.4655077  5.0448551
Ar  5.6674839  1.6489815  3.9279014
Ar  9.8224149 -0.0337809  6.3590697
Ar 10.7596549  1.0278235  4.5668758
Ar  9.4459626 -2.1913614  5.3350284
Ar  8.6990044  0.2100095  4.2300862
Ar  9.5531227 -1.9642286  6.5502280
Ar  5.0050741 -2.3883911  5.7355757
Ar 12.3293345 -1.5172153  4.3924018
Ar  9.6226368 -0.3871970  9.6807661
Ar 10.1805901 -1.8216773  8.2473672
Ar 10.7492067  0.6777027  6.4936140
Ar  8.3770674 -0.4034684  6.1507787
Ar  9.0595571  1.7268999  6.4967766
Ar 10.4014202  3.4647920  7.6984354
Ar  8.0272793 -1.0437611 11.4367366
Ar  0.4121859  1.8416837  3.9477566
Ar  7.6863335  0.8489099 -0.5623461
Ar  6.2472572  1.1117413  1.5207328
Ar  6.8713089  3.5589771  2.1692660
Ar  9.2356015  2.3602597  2.6772684
Ar  9.8709398  2.5422556 -2.0663517
Ar 10.0906317  4.2812770  0.6226893
Ar 12.6237300  1.0028198  4.1244608
Ar  8.3035837  1.9389573  2.1156355
Ar 11.0053140 -0.2001472  2.4935402
Ar 11.1266173  2.7495887  1.7148151
Ar  4.6798532  2.9040387  2.5368777
Ar 11.6937014 -1.3198671  6.7096851
Ar  9.9614646  1.4530533  6.2382038
Ar  6.8728808  1.7753063  3.7856805
Ar  3.3749210  1.8060079  3.7005303
Ar 10.8075396  2.3102616  8.7372290
Ar  7.9880927 -1.2688924  8.8446062
Ar  6.9455295 -0.2543772  4.1783185
Ar  6.9566931  0.6381952  8.8144466
Ar  5.9482511  1.6066697  9.6856803
Ar  7.2347696  2.3442100 12.1454637
Ar 10.1205795  5.2204709  8.6456570
Ar  7.3846448 -0.7889029  5.6675318
Ar  8.9034550  2.2341608 -1.4008489
Ar  7.7179398  0.7420602  2.5864427
Ar 10.6918276  8.3244405  4.0266726
Ar  8.2753573  1.7902783  0.2770218
Ar  8.3527385  2.9311665  3.8673193
Ar  7.4759725  5.4689025  4.7081096
Ar  6.0094538  8.2346805  4.0237278
Ar  9.3145610 -0.2940779  1.3476737
Ar  7.8963312  4.1403566  3.3307457
Ar  8.1110326 -0.5674025  2.3744901
Ar  9.4366627  0.2022535  3.4061665
Ar  6.1861621  9.2288290  5.9918450
Ar  7.4224083  3.3095850  3.0359652
Ar  7.8885108  3.4116748  1.9844678
Ar  9.2235058  0.8908594  4.8509120
Ar  8.5319014  0.6756770  6.4038110
Ar 10.6339294  1.3256126  5.5831775
Ar 11.5862743 -1.9047088  7.7043983
Ar 10.9324759  4.2606561  6.9458859
Ar 10.7524872  0.8170504  3.5623300
Ar  9.1101367  2.9312264  7.4488717
Ar  6.2826142  2.6360836 10.3038193
Ar  9.6182681  1.9437500  7.2438485
Ar  7.9129652  3.7467598 11.0151618
Ar  6.9946844  6.7703239  1.0152783
Ar  9.5900825  7.8200699  1.4928568
Ar  6.9142093  7.4041175  1.7844300
Ar 10.8773618  9.0189642  4.7532116
Ar  6.3524117  5.0185510  3.2031060
Ar  9.4718938  5.0394295  5.6068632
Ar  8.0268750  6.3679880  4.0465954
Ar  6.7351612  8.0559225  3.1998034
Ar  6.3288488  2.6914272  1.3586329
Ar  9.5274367  7.7171563  7.7320509
Ar  7.9732909  5.3210915  8.7006425
Ar  6.0432167  4.6908973  4.1089481
Ar  6.8825441  3.2421335  3.9095206
Ar  7.6173827  4.0462393  6.0733666
Ar 10.5087483  5.6367389  6.8020567
Ar  9.7193249  5.0693630  4.4896371
Ar  8.2681455  3.4429525  5.5854839
Ar  6.6236760  6.7233104  6.7751028
Ar  9.4624721  5.9536787  4.9993909
Ar  8.1008921  3.2970682  8.6864928
Ar  7.9484707  3.5246390  9.9394036
Ar  8.6209493  7.9673166  8.4299211
Ar  9.5960734  6.5913767  7.4085579
Ar 10.0662464  6.2851608 11.8630337
Ar  5.6740736  9.0377369 -0.1289834
Ar  7.5160871  9.4936144  3.4035386
Ar 11.8544418  6.3258106  1.8163493
Ar  5.2796634  4.9346389  1.4968472
Ar  7.3888162  8.8136379  2.6365775
Ar  6.3091892  5.4768037  4.9717579
Ar 11.0325232  4.9472784  1.6268329
Ar  5.3740958  6.3790809  3.8883251
Ar  6.4094674  9.5622786  1.5226311
Ar  7.0581926  7.6483691  6.3248301
Ar  7.0799086 10.6743643  0.8016418
Ar  8.1274606  9.2152509  4.0874736
Ar  8.4061443  5.4378822  4.9730120
Ar  6.2196106  5.5035522  7.3078367
Ar  6.7160358  8.9884928  3.4974250
Ar  8.2375164  7.5545670  4.6757888
Ar  7.7072578  6.9148005  6.5206090
Ar  8.0358535  7.9931282  6.5096467
Ar  8.4804946  5.9875006  8.1074142
Ar  7.7028282  9.0073169 10.4060683
Ar  7.0683663  8.7214751  7.9702021
Ar  6.2550783  6.8615111 12.4641538
Ar 10.3366901 10.4795186 10.0514714
Ar  8.3239484  5.0663857 11.1665532
Ar 11.2659355 11.1111547  0.9689172
Ar  7.1372942  7.3277562  3.9282046
Ar 12.6894534  6.6259752  1.0815221
Ar  9.8763456 12.5763763  1.6684452
Ar  7.8627696  8.2055355  1.9486701
Ar 11.7979257  7.8692666  1.7075027
Ar 16.1819023 10.2430952  0.8419128
Ar 10.4632392  5.8645881  4.6274889
Ar  8.3705470 10.1755368  3.2122909
Ar  9.2184993  8.7003769  1.1392188
Ar  9.6615244  9.0571887  6.6944692
Ar  5.8384010 12.5346691  5.4212147
Ar  9.3607550  9.5440152  4.2900462
Ar 10.3432440  8.4461798  7.1545748
Ar  8.7841480  8.6814827  6.0304777
Ar 10.4368898  4.4978638  7.9258648
Ar  8.8043384  8.7685174 12.1584496
Ar  8.7489384  6.0997979 11.0540795
Ar 11.1537630  8.8003961  8.4490403
Ar  3.9800563  8.0070237  9.0421623
Ar 11.0362181  8.5782627  9.7325130
Ar 11.2407122  7.8960088  6.8710384
Ar  7.0684715  9.0986483  9.6058599
Ar  8.5514593  9.3575182  9.6907394
