864
10.077600 10.077600 10.077600
Ar -12.7795118  0.5855742 10.7220414
Ar  8.4561145 20.5318324  1.2935924
Ar -15.4230506  5.1951463 -20.1398753
Ar  8.4738221 11.1479966  1.9710548
Ar  0.3440161 -4.2384484  9.5852205
Ar  0.5817776 -4.9540444  5.9453026
Ar  6.1231627 -8.1452472  0.7465718
Ar  1.7684470  1.3978360 10.6510641
Ar -2.7494983 -12.2881723 -4.8406040
Ar  2.4236419  2.5721711 -3.3410514
Ar  3.0360352 10.4038744  2.7928808
Ar 15.9140364  3.6249329  3.3768452
Ar  9.0505203  3.9133977  8.0293737
Ar -3.0465046 -1.3206688 15.5192887
Ar  2.9295859 -2.7959806 -6.8445227
Ar  4.3208971  5.5528931 -1.1284180
Ar  5.7695614  2.8638635  4.0876860
Ar  9.4461357 -0.3563709 14.7100592
Ar -2.0229123 26.4776821  7.3655920
Ar  6.5540066 10.7700228  3.9414267
Ar  4.3589216 -12.2288336  1.6184836
Ar 17.2610205  8.3151213  4.3615443
Ar 12.2413315  6.7102209  1.5981822
Ar 10.6122693 -7.3183796 16.9113812
Ar -5.4110882  4.5494294 23.1027493
Ar 14.8310524  0.5408663 -17.3378553
Ar  8.0581471  5.8540987  4.8512971
Ar  3.8849706 -7.2477657 11.4432352
Ar 16.5649387  9.6447656  4.4330744
Ar  0.9744789  5.7824707  0.8704514
Ar -2.7655251  7.2219472  8.1094967
Ar  0.5401718 12.5577006 -7.9851934
Ar -0.1894245 -22.8302206 -1.6746304
Ar -0.8975403 19.9759613 -0.8502532
Ar  4.1624839  7.2220084  0.7920010
Ar  0.8172960 11.8473887 10.9184797
Ar  2.6362805 -8.9622449  9.1231760
Ar -12.6754298 -7.7309695 -5.4177456
Ar -5.6274444 -3.2370125 15.0417159
Ar  6.9566026 11.5470098 13.1554168
Ar  1.5234632 22.3614913 11.7002153
Ar 10.2552480 19.7266824 13.4044817
Ar -5.0095727 -4.0367614 -5.3501292
Ar  9.3573993 -3.2575806 11.9099494
Ar -5.1102332 -15.7229366  8.6759758
Ar  4.9915465 -0.6096081  0.3317227
Ar -9.5464400 14.3523955 16.6500737
Ar  6.1603453 -6.1317567 10.8287446
Ar -14.0875527 -16.1734572 -1.7294072
Ar 10.8305736 11.6449261  1.8280826
Ar -4.6056675 -0.3312748 -5.7420225
Ar  1.1861702 -7.6853722 -1.5127205
Ar 22.2920412 23.4007943 -7.0892579
Ar  8.7041923 12.8751025  6.5511268
Ar 12.0018634  5.3397204  8.0599958
Ar -3.2140184  2.5061966  0.2286364
Ar -3.1033903  7.3241217 -5.9993964
Ar -0.6223597  8.2194812  4.5385310
Ar -5.6072489  0.6660135 -1.6222179
Ar -5.6819777 -1.5578480 -3.8970640
Ar  9.4787211  0.9250606 -19.0302933
Ar  2.7315967 15.0402125 -1.6052337
Ar -4.6803032  4.3262287 12.4558498
Ar  7.4559750  0.0596250  4.0048625
Ar -6.0127981 12.2429361 -2.1933988
Ar 17.8402249  2.0092862 -0.0912779
Ar -6.3416842 16.8683843 -0.1252044
Ar -7.5801461  2.3885137  8.5656116
Ar -2.8250785  7.5412724  9.0978529
Ar -4.3641327 10.9226389 20.0360150
Ar -8.7203920  7.5631291  3.4777838
Ar -2.4054514  5.4859991  7.5786110
Ar -6.2063661 -0.0231762  3.1422516
Ar 12.8822191 -2.1648482 11.3854540
Ar  9.5884498 -5.7015031 -8.2509528
Ar  1.8644020 13.6288814 -5.2050918
Ar  0.3252757 10.1495145 -0.2802759
Ar  3.8786900  6.1384081  4.7166605
Ar  8.4957585  0.5464254  5.2033065
Ar  3.2399306 17.6512446 -12.1103704
Ar  1.0968174 18.0712833  5.7934131
Ar -0.8163226 11.1414375  6.8551668
Ar  9.0042461  6.1407906  0.9001673
Ar  6.8903963 12.5237521 -7.5495413
Ar  8.7832582  5.8260033 -0.1101587
Ar  0.8344523 10.7933188  3.9110673
Ar -3.2349998 -12.7035691  0.5794928
Ar 16.3712379 17.0037348  5.8809265
Ar -3.0063830  3.9844391 18.7882682
Ar  5.0320775 10.7295363 -5.4228272
Ar  3.6359361 11.3666229 12.8204628
Ar -5.7717185  6.5018985  1.6892699
Ar -11.5707018 -2.5885857 -4.9026598
Ar 12.1223461  2.2589357  7.7093835
Ar -2.1140226  9.8392074 15.9138241
Ar  7.1117620  6.2772316  5.6684866
Ar  3.0492315  9.4723043 -2.0118002
Ar -7.8915084 17.9885006 -0.9603822
Ar  5.6428033 13.8686105 17.3614326
Ar  1.5779167 -0.4030891  5.4426359
Ar  9.7857244 16.4087067  2.8286935
Ar -1.2423384 11.7699917  0.9925943
Ar  2.1652293 -0.8332846 -6.2089618
Ar -4.5776455 16.1857550 -1.9250991
Ar -0.9502475 14.4825093 14.3052722
Ar -6.9436118  3.2290628  1.8572834
Ar  2.1607365 15.1630501  0.3722380
Ar -5.6525235 17.3333605  3.0778701
Ar  1.3450319 10.4252366 -1.5150814
Ar -3.1794621  1.2745424 10.1161965
Ar 11.2293736 12.9704277  7.5420110
Ar  6.1802395  6.9923648 -7.7048695
Ar  5.3367856  1.8827331  4.2139039
Ar -14.9653613 13.3954463 15.2532851
Ar  9.6239710 18.1620511 -9.3541470
Ar -9.8642111  6.6877288 15.4548653
Ar  6.5963071  5.4160352  8.0536810
Ar -9.3561807 -3.2954749 23.4205224
Ar -2.4501535 14.8512453 -1.9287500
Ar  2.8679475 16.6812435 26.5207178
Ar -2.8181777  7.5566993 -2.9422951
Ar 15.2272134 -8.3534820 10.2004699
Ar  6.0566077  1.1393937 -7.5473480
Ar  6.0122669 19.7742939  8.7396561
Ar  6.5188562 14.0309991  2.5570238
Ar -1.6921129 16.4261713 -11.8346957
Ar -11.3614831 14.0050012 11.5688605
Ar  3.2594600 19.5974510 -9.4055911
Ar -15.0845343  2.2808096 -2.1649955
Ar -1.7205913  3.8231044 -9.6111991
Ar  0.1734678 25.6326119 -13.0770156
Ar 11.7360904 24.1927846  6.9603429
Ar -11.3138682 19.1035989 -10.9866858
Ar  3.2823077  0.5095471 10.1930233
Ar 11.7669641 11.2013483 -2.3760523
Ar  0.1566840 -9.3389790 12.9370764
Ar  3.2449888  1.2542490  5.5880745
Ar 12.9301788  6.2902537 10.3130206
Ar -10.6005839  5.9741367 15.5466589
Ar -4.2240803  5.1526745  8.8167844
Ar  7.6461186  4.4386735  2.5584727
Ar -6.9628740 13.0349288 16.0481060
Ar  5.5063302  1.4589381  6.7965868
Ar -7.8407164 19.1912556 -3.8150285
Ar  7.6474958 15.2807663 -8.1898320
Ar  6.0119358 -2.2321793 -5.2758238
Ar  5.0794747  7.7482271 -9.6542087
Ar -9.7762008 -10.4173698 -13.1114663
Ar  6.7089795  9.2601264 -2.9861527
Ar  6.5196531 -8.9165658 -0.9632830
Ar 10.7124862 -13.7407497 -5.7749696
Ar  0.9913630 14.2482739  5.5447841
Ar 10.1993483  6.5093391 17.5390321
Ar -0.4915864  9.0706615 -13.0604995
Ar  6.5073118 10.2554017  1.9854622
Ar -2.6321303 -5.3982016  5.1981621
Ar  8.7252722 -3.7255804 15.8426035
Ar -9.2734146 10.9602996  9.3614335
Ar  0.3709208  3.6917523  0.1944538
Ar -6.8214623 13.8253893 16.7796935
Ar  3.2849434 -1.5835904  4.1487547
Ar  6.4137346  0.2489340 17.7731345
Ar -1.9767084 -1.2803059 -1.6712422
Ar -5.0825961 -2.3070205  2.5092231
Ar 20.8920820 -5.6404973 12.8280322
Ar  2.1584125 -5.6791916  5.9837331
Ar -4.3167627 -7.9350783 18.6119397
Ar  0.1356843  2.2707448 17.7379977
Ar  4.6335690 -17.3797040 -1.3905098
Ar -6.2043502  9.8908434  5.6778232
Ar  7.5424941  9.2397022 -11.0675056
Ar  3.5861976  4.2823247  4.7217177
Ar  2.8716453 -19.6829749  5.1066124
Ar -8.9155671 -0.5969383  1.9584071
Ar 18.5683305  2.1259278  4.0133502
Ar  5.8310921 18.7193240 10.9262368
Ar -3.6945607 -1.2728139  9.1856533
Ar -0.7379940 10.4521317  3.6978890
Ar  0.7759885 -0.2329431 11.0417254
Ar  9.6013350  5.4306534 20.1274446
Ar -6.7034648 -4.4588956  1.9023320
Ar -6.0395603 -11.2133870 12.6864621
Ar -6.0102337 -7.7466714  0.3272162
Ar  8.1723751 -14.9937082  0.8174257
Ar -6.3981749 18.4269818  0.7299991
Ar  8.8356956  0.1693029 -3.7597671
Ar -8.6137630  7.5841169  6.9782469
Ar 12.4521677  8.6838904  3.0111060
Ar -4.1703272  8.7373540 -5.5617118
Ar 14.0231667  3.9180889 10.9989744
Ar  3.5131632 14.7667785  6.5457067
Ar  5.2174631  3.5813943  6.2994348
Ar -5.9960627 -2.4378843 -4.7775535
Ar 12.9294554 -8.9731529 12.1135748
Ar  5.9825441 -4.9734370  5.1012693
Ar 10.1933863  0.6114872 -2.0507779
Ar 11.6270777 11.4079398 18.9041293
Ar  5.3081741 -9.8242337  7.9997727
Ar -0.0611305  1.7365289 -5.2775096
Ar -0.7419287 -6.7793428  2.5489890
Ar 18.0335046  2.8001134  2.4245706
Ar  4.1681767 15.2720280  4.5297142
Ar 12.9976328  9.7005828 -0.7969110
Ar -3.3758019 -5.6575549 -2.4341714
Ar 10.3738428 -3.7662271  8.6044822
Ar 12.3366233 10.2967507  8.9129937
Ar 19.0654080 -5.4446879 -7.3956586
Ar  1.8128215 16.8892225  9.6685729
Ar  9.5334569 -4.8850406  1.0920348
Ar -0.1340931  8.0346210  9.3240138
Ar  2.9217614 -1.9753079 12.3110548
Ar -0.7992058  7.3376098 -4.0384936
Ar -5.5764958  4.1181921  4.8677649
Ar 12.5361948 -6.4561146 10.4241368
Ar 20.1513192 12.7257436 23.0886152
Ar -4.7235733  8.8064592 12.6214835
Ar 14.0740432  5.8370950  3.6284503
Ar  0.1684197 13.3415185  8.0533512
Ar  8.9647073  8.1131152 -16.6407161
Ar -9.2438801 -8.4669674  6.5396137
Ar 11.4635257 12.8908676  2.6761048
Ar -5.4093607 -3.3741295  3.8161407
Ar -4.6462598 -3.0416660 -2.6381751
Ar -0.1900992 24.4497861  0.7829911
Ar -11.5821676 10.2434847  4.2189247
Ar 21.7794109  5.6032439 11.5906364
Ar  1.0738291 -3.6706176  6.1829803
Ar -6.4101790 18.2108992 13.1512805
Ar -5.2695951  8.5481204 -1.8418620
Ar  8.0455665  3.6548334  5.7870219
Ar 11.0676228  2.5307081 -0.5030316
Ar  1.3534714 15.4579388  3.2229259
Ar 10.5068978  9.7055501  8.4381657
Ar  6.2602532 -0.9762232 16.2509296
Ar  2.1480811 20.5920390 -6.5658761
Ar -5.2229667  2.2056512  1.0952119
Ar -7.4786794  1.2268170 18.0780512
Ar -0.0558573 16.2767142  0.4750364
Ar  2.9312118 26.6237605 -2.1719670
Ar 12.2211671 -8.5668360 14.9863052
Ar -10.4040596  9.9533629  1.1812403
Ar 24.2875215 11.7066310 13.9856523
Ar -2.1664559  3.0334864  5.1425466
Ar -2.8447639  9.9977614 -1.7327778
Ar -7.9809762 24.4822275 -0.1856216
Ar -6.9176083  1.7629096 13.8036843
Ar  5.4300755  0.7814752 -4.4657342
Ar -4.2535500 12.7202214  5.8962049
Ar 12.0879051  8.1760007 -4.0074685
Ar -9.4458314  2.2475677  5.5847119
Ar  4.6614868 23.3067550 -9.3018909
Ar -1.3316913 15.1430232  1.8521485
Ar  0.6962672  4.0638420 21.9459015
Ar  7.9495568 13.8364522 16.9875695
Ar -5.4668986 12.8306669 -4.4117412
Ar -1.2686412 16.5373795  4.6325871
Ar 10.2162689  2.0169075 10.2237795
Ar -10.5798596 10.1453113 12.1883882
Ar 15.0849868  4.5924783 14.2598440
Ar  7.4474125 11.6011095  3.8230777
Ar  4.2261296  8.3911120  9.5980002
Ar -7.5757453  7.1856540 20.6688935
Ar -13.0103803  4.4113297 20.1916698
Ar 12.1718800 -1.9669551  3.9470796
Ar 11.8076059  6.5076870  5.1578120
Ar  5.6529491 10.3902053 -3.1666236
Ar 12.2880411  4.3210967  1.0105792
Ar -0.2497493  9.0290481  8.9177528
Ar  7.0123101 12.6357287 11.5851128
Ar -3.8435858  8.0368275 -0.0296997
Ar  8.2126620 24.8875549  4.6296661
Ar  0.4957699  5.1178205  1.3322952
Ar 21.3768432 15.3034370 -5.9829378
Ar 14.2883281 14.7438336 21.8138014
Ar  1.0330272  8.6196212  3.8677736
Ar  2.7094499  2.0887824 -0.3181391
Ar -0.6116011 11.5823295 -2.3004239
Ar -3.5152942  7.4011825  3.2155359
Ar -6.3523277 11.8462959 17.1086913
Ar -0.1740585 10.6462512 -9.6989824
Ar  3.0151591 27.6539413  9.7934515
Ar -17.0456393  9.4015735  3.4234047
Ar  0.9576705  5.9246958  7.9731285
Ar  8.1604702 -0.3392555 10.0932030
Ar  6.6359072  9.0428438  2.6119870
Ar -4.3090544  7.1395828 19.9718128
Ar -8.8039621 13.6818106 -0.4784039
Ar 13.1470441 13.8479723  1.1620310
Ar  2.7740728  5.8736242 13.6609227
Ar  8.2397511 -3.9160822 -0.7940192
Ar  3.5464212 -3.3595166  3.7570163
Ar  5.5283781  1.4352053  1.4828125
Ar -0.0097115  5.0863862  3.1073115
Ar -1.5825472 -6.1494742 -6.3717251
Ar 23.1660597  5.4252683 -10.7092211
Ar  5.8219715  8.4307024 -1.5673747
Ar  6.4349978 -8.1561939 -3.6536785
Ar -3.2688545 -5.1175231  2.7705223
Ar 10.0615350 10.6987660 14.6002960
Ar  6.7028912 -4.5017024 -10.2100154
Ar -3.8641324 -0.7071571 -12.2465886
Ar  5.6408753 -17.0789444 12.6802370
Ar 18.4993008 -9.1030761  3.7597983
Ar 26.4138204 -5.6531450  6.5964163
Ar  6.0236984 -7.5499673  9.8911556
Ar  0.8051686 -1.5686613 14.9618146
Ar 17.4779335 -3.6541898 10.6697569
Ar  2.5646261 -2.6375880 -4.4089720
Ar 12.9105373  1.9405023 20.9008274
Ar  0.7229982 -6.3932306 27.4318824
Ar 11.1717904 -9.2300234 11.2409018
Ar  8.3228075  9.4267542  1.0554243
Ar  4.1211711 -0.1187775  7.7258064
Ar -2.5117062  7.1853291 12.7987092
Ar 11.5539463  6.6602044 -2.5966512
Ar  9.4359711 -11.0860743  5.3067008
Ar  9.6687091 -3.9848382 -6.3783915
Ar  5.5615423  8.2219204 -4.5868507
Ar -8.5199060  4.1702829  3.4937107
Ar  3.1403899  4.6873123  1.0715091
Ar  6.9288708  6.3238337 -2.7223629
Ar 11.3599201 -12.6156863 10.2841491
Ar  4.5114166  0.6023139 10.1626335
Ar 18.4388144  4.4745627 -2.4995504
Ar  3.2568008  3.2606992  9.2945475
Ar  0.9005253 -7.4309827 14.0102189
Ar 13.6069975  1.8043948  4.7608097
Ar  1.9987687 -8.6169349 -3.2250291
Ar  5.3136936 11.8886445 15.6187134
Ar  4.4543955 -3.8126773  7.0570537
Ar  7.7548667 -3.3639347 -4.9297135
Ar  7.2380309  2.0517098 -2.6942676
Ar  1.9131375  6.3178292  0.5378331
Ar -5.9793044 11.5326464  6.1752631
Ar -6.4103865 -3.8352362  2.6487057
Ar  4.7647163  8.8621731  1.2919926
Ar  5.0566250 12.6879867  3.4355718
Ar  3.0625000 -6.9419357 13.1079385
Ar  3.8893156 -4.0864170 -9.3512313
Ar  7.8240120  3.4186284 -8.5157227
Ar 13.8995994  8.8299951  8.4585518
Ar 10.9663084  4.9742362  9.0997664
Ar -1.7718269 12.1106187 -2.7283822
Ar  4.8307866 -7.8867353  6.5505964
Ar  3.0620432  4.2131815 -0.9072850
Ar 16.0360689  1.1169171 14.7489372
Ar -1.7510976 17.4785988 -16.5741995
Ar 10.9297135 -6.0606809 -1.4247690
Ar  6.8828679  6.8902194  4.8824309
Ar  3.8216488 10.5249055 -3.4107474
Ar -2.4002417 -0.8505520 16.5498427
Ar  4.5817505 10.0083559  4.9885180
Ar -10.9597261 -14.6226451 13.0403329
Ar -3.4989237  3.4321739 19.9156194
Ar  7.0980825  3.6084662 11.1050151
Ar 15.8965234 11.7905542  9.3660782
Ar -1.0527812 12.6549872  8.3702697
Ar 16.8956502  4.4597231  1.8132494
Ar 19.0285234 28.4304475  5.6553260
Ar 19.8308523 10.9530924 -4.7491403
Ar  7.0024578 18.6410386 -1.7539020
Ar  3.0438183  2.0245460  1.9782534
Ar  8.1219335  5.3805315 -7.2328993
Ar  4.8198769 20.0317092  1.4257949
Ar  7.0412401 15.8112844  3.3049966
Ar  2.6862121 12.3999381 24.5202004
Ar  8.5372694  6.4995560 -7.7150771
Ar  3.5279688  5.6426620 -4.0135856
Ar  0.3583239  9.7654361  4.8702037
Ar -1.0198561 -1.7903843  8.4574949
Ar -2.3617894 -6.1258818  4.4233953
Ar -3.0957924 -0.2034755 -4.2100784
Ar -4.8353191  7.9719919 -0.6766658
Ar 10.1674369  1.2522442 -2.8206310
Ar 10.3053472 10.6175576 -3.5970470
Ar  4.8585423  1.5342392 -1.2507515
Ar  0.8878501 -1.9431978  0.8403385
Ar 12.5163209  4.9780339  3.0688615
Ar  3.7578571  2.2372936 13.1395546
Ar 14.2671431  6.9237403 16.3472410
Ar  8.0957775 -1.9402191 12.8194730
Ar  2.6412200 -1.6641554  7.9751795
Ar  7.4876113 -10.8695866 17.7722634
Ar  9.6226968 12.2663869 12.3119041
Ar  1.4364978 22.6657816 16.4755298
Ar  0.7372903  7.4343475 -5.4769997
Ar  3.2979134 14.4372980  1.9519850
Ar 15.1642717  5.8389834  1.2544565
Ar 10.1630933 -5.4925251 -0.5596961
Ar 15.7715605 -3.5777812  9.2115840
Ar  2.5644107 15.7565230  1.0152242
Ar -8.3530129 19.4914451 -1.8652224
Ar  5.0072174 21.4590295 -6.5887466
Ar -1.6866223 12.7705746  9.1408709
Ar -13.2416121 15.8400623 -5.1576199
Ar 17.3785908 13.5925672 -2.4152614
Ar  5.7016392  0.6280773  0.8963228
Ar -1.0066205 -2.8796211 -1.1365515
Ar 19.8320172  2.9361764  9.7630774
Ar -1.8206166 10.5015296  7.3970757
Ar  6.9701965  7.5560324  6.1271107
Ar 10.6152117 -0.9211200  5.6932463
Ar  5.9324210 13.1098723  9.0160179
Ar  0.2459507 12.7969482 -5.3689555
Ar  0.1550303 16.9523194 -0.7357074
Ar 10.6242129 11.5322557  8.2774215
Ar  7.2948110 26.8293393 16.5309949
Ar  7.2355942  9.2168234  3.8290689
Ar  4.6073951  7.7355227 -1.3194121
Ar  7.3979162 10.4970919  5.1443492
Ar -3.2577182 -5.9669672 14.1226584
Ar -7.0162686 16.5164018  9.2461016
Ar 18.7785733 15.5829913 -2.4470124
Ar  4.7519694  9.8177693  3.4609141
Ar  6.8351515 15.0757038 -19.2158139
Ar 19.8608667 21.2099543  2.0971782
Ar -3.4880407 16.1305102  1.2145165
Ar -0.9729882  2.9175576 -5.3417957
Ar -1.4524620 17.9656156 11.0741965
Ar  1.6609009  3.9833579  7.9404472
Ar -3.0945607 13.1244219  3.9071668
Ar  3.1184091 10.0953260  4.1987798
Ar  0.2845251 11.8941999 29.4195095
Ar 10.1626497 16.4994703 11.4947945
Ar -3.5378261 11.9845253 14.4884830
Ar 10.5997996 13.3348782  5.8389276
Ar  4.2101480  3.7097036  8.5710630
Ar -6.1227721 11.5978368  1.8256239
Ar  6.4415535 11.5342108  5.4159874
Ar  2.0329261 -4.5411615  9.4869119
Ar  9.6597113  5.5716556 -2.3520536
Ar 11.9231194  4.2019609  8.9930548
Ar  6.1326374 -10.1251800  2.9859337
Ar  3.4851574 16.3421873 -3.0878971
Ar 23.8526966 -13.0023795 12.3606771
Ar  6.3914310 10.9630851  6.6559484
Ar  3.9622006 10.5822045  2.0991799
Ar  3.9202615  0.1324335 10.8117938
Ar  7.9560920 11.2264529 -5.5380835
Ar -9.7550247 -12.9062006 -3.7691790
Ar  4.0809154  4.8522801  5.5292575
Ar -15.1945159  1.4999098 12.4338662
Ar -4.9201902  9.1946887  6.3203383
Ar 11.9888696 21.7134911  3.8400450
Ar 18.2157355  2.0695171  1.5718114
Ar 11.5561197  3.3750482 11.9693370
Ar  6.3791943  8.1250710 -2.5629813
Ar -4.2064490 -5.9904449  5.7611255
Ar  7.6592884  2.7464943 10.9165014
Ar 19.0466095 -7.3569129 11.8994096
Ar 10.1889982 -12.3209577  3.6184524
Ar  9.2825879 13.1972423  5.6812621
Ar 19.9458252  3.5619259 17.1066850
Ar 12.3221696  6.1157306 27.0782289
Ar  0.3592115 -1.2132723 10.5826830
Ar  4.7065101 -0.3780891 22.5528092
Ar  8.8083571 -6.9459678 -6.6281505
Ar  8.0142642  2.4768257  6.0867790
Ar 18.8253182  4.8597265 -1.2988513
Ar 18.7267683 -2.9108897  6.7903816
Ar 21.8822422 -16.7443376 -14.3903670
Ar  3.7240532 -7.5125275  5.4618935
Ar  4.1160675  9.8966847 -1.3858667
Ar  7.6175611 -14.5639686 -10.0643860
Ar -4.4567542 -9.6304565 -16.3448998
Ar 12.4330747  2.7237123 -7.9573269
Ar 14.7905398 -0.0819505 -4.0116744
Ar 15.7086900  3.6699246 -8.2518532
Ar  8.8655031 -9.5011061 12.9142014
Ar 10.0643139 14.4043849 13.8698209
Ar  4.6763685  1.5190362  7.4194829
Ar  0.6525373 -0.9022470  9.1885085
Ar 10.0155055  2.6911846 -11.2894889
Ar 16.6165000  3.4422335 14.9513804
Ar -6.9387979  0.0783916 -2.7453312
Ar  0.7197141  0.6564062 15.7635509
Ar 12.2098471  0.2825338 -2.2741182
Ar 11.7947324 19.0106134  4.7316294
Ar 10.2654079 -2.4559089  7.2404626
Ar  9.4368173  7.1127022  7.4863752
Ar  3.7105469  7.9439829 -1.3201404
Ar  1.8618229  2.9838810  3.8460166
Ar  8.8072270  6.8256218 -0.3443506
Ar  8.2106272 -1.4247947  5.1843013
Ar -13.0399703  1.5344296  8.2305274
Ar  3.2384194  7.2354032  5.0798866
Ar 12.4165300  9.8465331 -5.4636165
Ar -1.9560948  8.5138842  4.1891182
Ar 12.6770444  9.2574804  7.1044114
Ar -2.6614291 -4.0211634  8.4292278
Ar -4.9762867  2.7818997 -10.2649300
Ar  1.5547916 -10.1765930 -0.6470397
Ar  5.6122376  3.9935512  4.5854137
Ar  7.2559708  1.8220286 10.9243976
Ar  7.0620695 -0.0388526  3.0355871
Ar  7.5095755 10.2682580  1.6392200
Ar -0.4285581  4.3946127 16.1572679
Ar  2.4086839  5.6840434  2.3095877
Ar -0.4625071 -0.9841543  9.9814879
Ar  0.0644346  7.4218094 10.1382238
Ar -6.0230481  3.2233919 15.0000707
Ar 10.9089119  3.4252170 13.2490509
Ar  9.6419924  2.3754628 15.5400320
Ar 19.7137214 -1.8023106  2.8136882
Ar  9.8713674 11.8766863 -8.6721965
Ar -2.1879938  5.6963433 -6.1017243
Ar  3.8818508  4.1612342  3.6418938
Ar  3.0641117 -7.8987066 -2.3653363
Ar 21.6399326  2.7229147 15.2263129
Ar  1.6068256 12.6373101  0.4916613
Ar -4.7301870 -1.2154211 -0.4799368
Ar -2.6912078  8.1007415  3.3947556
Ar  6.0277523 22.0912405  7.4699188
Ar  6.8035549 16.5675120  9.0412369
Ar -3.3849742  5.1323791 -4.2837813
Ar  6.8566167 -0.4174967 11.1293903
Ar  9.5288053  5.0840669  4.8653924
Ar 14.9766863 24.5338804 -3.2206239
Ar  4.2796240 13.8315221 16.0137345
Ar  6.5366720  0.2813066  0.4324511
Ar  1.7012890 11.8836631  5.8100002
Ar 10.3941443  5.0587874 10.3585020
Ar  3.6112418  4.9669371  2.8362101
Ar -1.7899315  9.9080413 18.2436503
Ar -2.5617397  9.0071516  2.7247264
Ar -7.0756987 11.6155912 -3.6537113
Ar 11.1574170  4.7596590  7.8896610
Ar 18.5412422 -4.7593389 16.8808618
Ar  8.5255252  9.4791236 -13.0197296
Ar  9.2020877 19.0100551 -8.9095785
Ar 12.5946954  6.6824065 -15.9181384
Ar  7.9247835 20.8408307 -21.8446781
Ar 23.2531897  6.7674581 -8.6911742
Ar -9.1327524  8.3322327 21.8946792
Ar  7.9511118 -4.8967560 -11.0490277
Ar  0.0793718 15.0488692  8.4169593
Ar 15.7427096  3.0114368 -9.1583064
Ar  9.4205867  2.2908998 -6.2298863
Ar  5.9057190  8.8970303  1.8217155
Ar  1.3800490 19.2961115 13.3045938
Ar 15.7237384 19.3934025 15.3796788
Ar 12.5179339  3.9098519 13.8962485
Ar  1.6651165 -13.1907375 -5.8765671
Ar  8.0888796 10.1531165 -6.9425300
Ar  5.6393653 18.2310800 16.5368182
Ar  4.1861773 15.4581527 -2.6439509
Ar  4.4945342  2.6346475  2.4846610
Ar  9.4161894  5.2388168 16.5388084
Ar  9.8535953 18.8564014  6.1819430
Ar 10.0419709 -5.8964633 -2.3435659
Ar  9.9417906 13.9793068  5.0337273
Ar  8.8931947 20.8691845  8.3016373
Ar  7.5076429  3.5050028  0.1050843
Ar 12.7729418  8.7214129  0.4097822
Ar  5.1447032  3.4570979  8.2509432
Ar  2.1923385 12.8755995  9.5567820
Ar 19.2378043  6.3057587 -3.0322031
Ar 26.6477187 11.8492706 21.8617862
Ar -0.7725674  8.1501779  6.8450630
Ar  5.1170736 24.9720161 15.4485681
Ar  0.8034586 10.4962070  2.0658259
Ar 13.1149350 15.2224478 -2.5102812
Ar 12.1370214 10.8051695 10.0258892
Ar 10.1569569 11.5454294 16.0641023
Ar 14.7717899 -6.0741450 10.4150622
Ar -3.7301368  2.2402340 13.4405318
Ar 12.4837649  2.2937569 13.3222429
Ar  5.7504561  6.5875669  3.1795214
Ar 12.5842781 12.4366549 15.4441474
Ar -5.7527384 17.5690228  9.7475582
Ar 10.3214070 -4.5762511  4.0875984
Ar  1.6461450 10.5463268 16.0292552
Ar  7.4342098  3.1110812  9.0859035
Ar  5.6656830 22.2011122 22.7938287
Ar  5.8086670  4.7228221  3.3780959
Ar 10.5847394  8.6449368  2.6506440
Ar 13.0985908  8.9506892 -8.7089132
Ar 13.7183117 -8.0866001 -10.7017557
Ar 11.3087761 -10.4377795  4.2365467
Ar -6.3546071 -14.3784261  8.2318619
Ar  0.6053413  2.7293787  0.6102429
Ar  4.6288339 -2.3011879 -3.2003883
Ar 11.8107726  0.1810975 -8.5059551
Ar  9.7058370 -6.5987410 -6.4027232
Ar  3.0230797  9.4212302  2.2363367
Ar 16.2887913  7.5941021 18.9788203
Ar 19.8737039  3.9820853 -1.2359960
Ar  2.2579838 10.5420072  0.9130207
Ar 11.3878871 -4.7912356  9.9850488
Ar  5.2747023 28.6205409 17.4247559
Ar  8.4075501  8.7088992  1.8573800
Ar -1.9922353 -2.2251015 -2.0971549
Ar 19.4477700  1.7878264 18.8460987
Ar  3.8982134 -0.4257986  9.9586018
Ar 24.7664919  5.2684999 12.4373379
Ar -1.5283992 -5.2391454 10.0570726
Ar -6.1371020 -5.3359183  9.5084611
Ar  9.3584508  9.2634981  2.6822131
Ar 21.4052424  8.2924196 -1.3458224
Ar  7.4150294  4.8743872  3.5864122
Ar  7.3968003 12.9637661  6.6490512
Ar  8.7188313  3.7661754 -0.9110960
Ar 22.0439376  9.6776237 20.5217976
Ar -7.4746810 -4.2824936  4.5743136
Ar 11.0300309  1.7401112 13.8025875
Ar 15.8273810 -4.2848282 -6.0862456
Ar 14.8622009 11.0268518  6.5831042
Ar 13.5541350 17.7101334 -13.8858867
Ar 19.1895400  1.7105099 -4.1507468
Ar 22.5219618  0.5632595  6.8692331
Ar  3.1923022  4.8173626 -6.1792003
Ar  1.1463597  6.0268972 -0.9434465
Ar -5.4777649  0.9531653 11.2792834
Ar  8.0849807  8.8453706  0.0348438
Ar  9.4174869  7.1293463 10.9427522
Ar 14.2743553  3.0323341  9.7698688
Ar  0.5695021 -2.9253226  0.8182003
Ar 11.9914122  1.1706783  2.2839368
Ar -1.7320699 -3.1996027  0.8362962
Ar 11.0120357 -0.6605040 10.0813464
Ar 18.2505306  0.8536784 16.1364961
Ar 17.8378726  8.2269441 -4.0917306
Ar 14.9042361 -0.2446444 19.6603531
Ar  8.4990379 10.6885699  9.4635684
Ar  3.7102141  0.7109045 -0.8361999
Ar  6.6093008  0.2501037 -0.8437405
Ar  4.3637235  8.5381022 -6.4743831
Ar  8.7879785 15.5164277  4.3177941
Ar -9.2682529 -26.5899045 14.8874464
Ar 15.4473406  6.9435065  1.2775317
Ar 15.5571952  5.6551297 -20.5789460
Ar -8.3164278 17.2150327  6.1432127
Ar 13.6294247 -5.8436799 -2.4498698
Ar 16.9186933  2.2813768 -0.8563388
Ar 11.6989202  9.8648827  7.0414607
Ar  5.9100252  5.3433410 10.7626646
Ar  1.0459330 14.4889093 10.4569396
Ar -14.2447118 -4.4543588  1.7957631
Ar 20.1693169 -1.3866231 11.6285366
Ar 11.2275654 -2.8511838  1.6605222
Ar  9.9473201  1.4238398 -6.2341101
Ar  7.3899467 20.3332398 -0.3525832
Ar 18.4011242  7.5869528 -8.1206036
Ar  4.4343877 12.4171956 14.5787815
Ar 11.6805480  8.0801325  2.5312036
Ar  6.3878203  2.8533509  8.2159033
Ar  8.2485709  3.2021913  8.0203699
Ar 18.2370909 11.8770196 -1.5823504
Ar 16.5181245  7.8962821  1.3415744
Ar  2.6760941  0.0574943  6.1228526
Ar  2.5912986 -5.7393095 -13.0378733
Ar  7.1974728 28.4988450 -20.5077010
Ar 14.6734730 -3.8430952 10.1216197
Ar 18.5695792  9.0297199  3.1495077
Ar -2.8909591 18.1497600 12.2452012
Ar 10.9114638 -1.6370552 -0.3327893
Ar  6.7650696 -1.7001969 -3.5604092
Ar 11.9024305 13.2674745  8.7097289
Ar  0.2044126  9.5200261 12.1420944
Ar 10.9792619 15.7120089  5.1270897
Ar  2.6758957 -2.8959459 -1.3006936
Ar -0.7907833 -0.5211432  8.1889412
Ar  5.5214235  2.6259341  1.8105756
Ar 24.3182039 -2.3110644  4.1126928
Ar  7.2266750  0.9597231 16.1157631
Ar 14.6706288 -1.1522714 -5.6433653
Ar 28.6225347  9.7929056 12.2129242
Ar  5.3983447  7.2784370 -1.6211648
Ar  9.1754678  9.8632097 10.5308082
Ar  5.7242240 11.4472585 18.1783830
Ar 16.0301001  6.4068290 -4.9766237
Ar -1.1019127 17.4709609  2.6571115
Ar  1.0938512  0.7097124  0.2360713
Ar 24.0381291 -3.0081977 -1.1998883
Ar 15.5784768  4.3421359 -0.2682427
Ar -6.1685546 14.8961686 -11.7125376
Ar 13.5179525 13.2660273  7.5881537
Ar  1.4906600  8.9953410  1.1538236
Ar 10.2486799 21.8621640 12.7854140
Ar  5.0565837  6.7788521  2.2444519
Ar 13.3366993 24.4195689 -10.0618470
Ar 13.2773452 18.2253379 -2.8657295
Ar 17.2936887  8.8898851 -8.4514916
Ar  2.5097054 12.8902331 21.3215145
Ar -2.4716713 24.9602810  6.8145680
Ar  3.5367601 12.7689944  8.5255554
Ar 25.0112009  3.7076644  2.8525127
Ar 11.7057782  4.4608212 -5.3364573
Ar 13.1986428  8.7067298  6.0864783
Ar 10.1290564 16.2022960 -3.6823203
Ar 10.7412182 -4.6504704 -7.5794922
Ar 14.7713147 -4.7245980  6.4990725
Ar 14.5381376 -4.0984819  5.5178401
Ar 10.0267190 24.0693977 22.9629942
Ar  1.3298813  5.1290272 -3.3559756
Ar 15.0240692 23.7530945 -0.8627617
Ar -0.3472832 25.4517230 -7.9152678
Ar 14.4485334 -2.2394357 -2.1818753
Ar  2.9846354 20.4033313  1.4631571
Ar 11.5782992  8.7063667 -2.6476936
Ar 16.1036289  5.4404178 -3.0177912
Ar  4.0781316 -3.1492253  7.8270905
Ar 22.9603177 13.5503567 -1.7802567
Ar  4.7403375  6.1113932 -7.1069430
Ar 11.0532347 11.9993693  7.4075241
Ar 10.1687534  8.8744878 -5.9428805
Ar -2.5028977  2.5482767  8.2947397
Ar  0.1210770 17.7929283 -8.4341818
Ar  4.0867297 10.4071954  4.2007128
Ar  7.1126162 22.4971492 15.7507584
Ar  5.8438535 -7.3518196  7.0386439
Ar  5.5166677  9.2103090 23.6574545
Ar 16.3449949 20.4014640 -4.7445523
Ar 16.4432757  2.6428441 -4.9666940
Ar 27.6866275  5.6644781  6.3790581
Ar 19.0300203  3.9432599  6.9237310
Ar 27.7983227  1.2575449 11.6158784
Ar  8.0098478  2.9844061 14.1673879
Ar 23.0573331 25.3818448  5.4068471
Ar 18.6359681 21.8076934 19.4338183
Ar 12.6913462  1.3096333  2.9822981
Ar 12.7805260 -13.0355840  7.1701427
Ar 18.1876204 -1.9947196 -0.8939580
Ar 20.0597860 -6.6434982 11.5685515
Ar 15.6783899  6.3936007 -3.3466517
Ar  6.1145264  3.4264974 -3.5921246
Ar 12.2337665  5.0264342  3.9903652
Ar  9.3530998  6.9970391 13.6587386
Ar 14.6606634  6.3985280 -1.5361153
Ar 24.0408791 12.9741128  6.6440318
Ar  9.2887635 -1.9717051  1.7065620
Ar 26.5915591  5.1191444 14.3101791
Ar  5.3209982 10.6743874  9.0287842
Ar -2.1869834 -5.7465599  9.5388258
Ar 22.5254621 13.8556411 11.9104060
Ar 16.9736562  6.8637788 11.4932906
Ar 19.4832384 -3.6582830  8.3504118
Ar  4.5400470 -8.6741552 15.2155431
Ar  1.1956891 -9.4410123 -3.2450625
Ar  8.8469407 -10.8307858  6.1329053
Ar  4.8623423 13.2521635  7.3992904
Ar 13.5440872  1.1491428  1.0761034
Ar -0.8217375  4.7339190 -2.7692398
Ar 17.8834585  6.2807212  3.1253894
Ar  8.2499491 -8.9884760 -9.7750049
Ar  2.7630908 -0.9177308 -4.7925496
Ar 15.1751105  9.4012295 -2.5351556
Ar 12.7076432 14.6139096  4.6954265
Ar 18.9833690  4.0808884 -4.8841838
Ar  9.0784522  8.2580205  9.9069406
Ar 23.4404655 15.3496809  0.3262813
Ar  8.2051920  7.6185622 -10.1148126
Ar 12.8374243 -6.5760023 -5.2119455
Ar -0.5637163 17.3583915  4.7991616
Ar 10.6574592  6.4782419  2.2184328
Ar 22.3845323 -4.1216266  8.6908726
Ar 17.5364026  3.7144463  3.2923533
Ar -3.6491827  6.4838249 -9.7881727
Ar 17.3247105  6.9471061 -10.2814599
Ar  9.8819182 -1.7448777  7.8285381
Ar  7.3386451 10.1568123 -3.2338114
Ar  7.5879445 -1.7696489 10.6609746
Ar 11.8512379 11.9412090 -10.2752285
Ar 19.2055688 12.4534025 10.3219230
Ar 18.8102758 22.5463451  2.7060918
Ar 21.9901404 -2.3488318 11.2594667
Ar 15.6818447 -12.2503950  3.3951492
Ar -4.6195613 -2.0679183  1.3227413
Ar  1.5476107  3.6161118 -9.2029449
Ar -3.7471120  7.3485635 -3.2177350
Ar -3.4743575 -0.5883898 -0.3269860
Ar  3.0158180  6.2891968  5.3818197
Ar 10.8732428  6.7513364 -0.0541424
Ar  1.8770589 17.5035344 -1.9231241
Ar -0.9934411 -1.1062772  4.0285830
Ar  8.2875120 -0.5195211 -5.2774220
Ar  5.4695114 -4.4025063  5.9180292
Ar 17.6416058 18.6048902 -2.9144268
Ar 26.8178463 16.2086722 -6.0200661
Ar -2.2291763  1.2013478  6.9869596
Ar 13.4475989  4.0017776  5.6806148
Ar 13.9857449  3.7342559  2.3532761
Ar 11.9844784  0.7010426 -5.6134143
Ar  0.3619755 -6.6541585 -0.6882894
Ar 10.7639844 -12.6379787  2.4584662
Ar 13.9719015  8.6643679 15.1055506
Ar 23.5548828  3.1014230 10.3865333
Ar  3.1455289 -1.3894690 -0.5444463
Ar 11.2919263 11.8607398 12.7078360
Ar 16.2025108  7.9382349 12.5957958
Ar 11.8047308 -3.9705464 14.0524122
Ar  8.1634520 11.6675530 23.1316513
Ar -2.5743382 11.0982257 -0.8872401
Ar 17.8826980 11.7822804 -14.6678985
Ar  9.8921142  7.3277829  2.7643651
Ar 11.2383749 10.4628021 -7.1370075
Ar  9.8275897  0.8314478 -0.9995404
Ar  8.2718507 15.6575427 -4.3237028
Ar 21.9716243  7.8086814 -5.0847715
Ar  2.9271177 -1.8567303 -4.9634079
Ar 19.6199578  3.9843857 -0.0329636
Ar  8.7153288 11.9829611 -4.9703468
Ar 11.8440816  8.5095107  0.1421208
Ar 13.1082298 -2.4888933  4.1848866
Ar  7.6470193  6.4593684  1.8732946
Ar -0.2902751 10.0569085  5.8215064
Ar  7.7638353  2.4421871 13.3544087
Ar  7.6340685  7.4835223 -8.8616268
Ar 11.9870676  5.2263723 -4.7175829
Ar  1.0149852  9.1718181 -3.5597689
Ar  6.9594064  5.2382080 -1.0259508
Ar  0.5554571 18.9803554  7.8163231
Ar 15.2459337  7.1634863 -4.0627621
Ar 19.1534358 12.9853100 -2.5911274
Ar 15.8647129 15.5345218 -7.2681176
Ar 19.2091404 -8.9538662  4.4767925
Ar 34.1263752 19.4894447  1.4991108
Ar  1.2216678  1.7705594 14.8597088
Ar  7.5642177  0.7344779  2.5445824
Ar  5.5540895 14.8912737 -12.4710906
Ar  4.6326957 14.2137681  7.7910915
Ar 11.1044647  6.9486112  8.6210988
Ar  9.2046649 11.5614831  2.9950629
Ar  2.4841915 -4.2678684 -4.0489129
Ar 12.3207748  7.2741806  2.3265862
Ar  0.0902927 18.0429425 15.5097506
Ar  8.9638527 -5.1591917 -4.5427422
Ar  8.1869054 17.1971103  6.0054844
Ar  3.1973902  0.3780524  8.4652454
Ar  4.2085796  8.7214372 17.3520593
Ar 13.9253728 13.3059488  3.9244462
Ar 12.0090931 18.9562579  9.1434947
Ar 19.3917560 11.4774805  9.9435014
Ar 10.5985785 -5.4250754  4.5768503
Ar 22.1952134 -1.4121437 12.0259014
Ar 15.8912470 17.0382709  4.0674067
Ar 10.9209052 17.6979551 19.3871032
Ar  5.5340264  0.3668421 22.0291382
Ar 15.0631052 15.4092897  3.5390571
Ar 17.1766124 11.0355490  7.5420464
Ar  6.7834948 26.3830324 -7.5555325
Ar  6.2675050 14.4311066 -0.8384994
Ar  8.3794392 13.7774398 -7.2859050
Ar -2.9764372 13.9754863  5.7333617
Ar  9.6522310  2.3104116  6.7381498
Ar -11.8531547  4.4890073 -3.8501770
Ar 20.9725147  7.4371685 -2.1906617
Ar -2.1076939  7.3747972  4.5190267
Ar 13.9674734 10.9864040 -2.3804826
Ar 10.4866778 -1.5616537 -3.1769360
Ar 11.6865836 16.5816451 12.6131171
Ar  5.1134147  7.7127232  4.5322718
Ar  9.4573715  0.1881455 -12.6873858
Ar 11.6872284 24.8279019 12.0224824
Ar 24.7712313 13.8909050 11.8643047
Ar  6.3985157 18.4960394  3.7124395
Ar -1.2406853 16.3957949 13.4550742
Ar  4.8273552 13.6332388  4.2963212
Ar 15.3678949 14.7240723  1.1427263
Ar  6.4330091 -3.2615907 18.1963208
Ar 19.5598632 15.7103883 -1.1938332
Ar 12.9185824  4.1007191 12.7630869
Ar 22.3961739  3.2403317 17.6268885
Ar  8.7206271  8.7051815 17.6857518
