864
13.469544 13.469544 13.469544
Ar  0.2728114  2.8125268  1.7422261
Ar  1.0761708  3.1983635  2.3581595
Ar -0.1153650  1.9020859  0.1872553
Ar -0.5965839  3.3835592  1.6254057
Ar -0.6337167  2.4688722  2.2332182
Ar  0.1634035  2.7564113  3.5379720
Ar -0.0677046  3.4184198  2.6239468
Ar -1.1599684  3.6719651  2.5475974
Ar -2.3615662  1.7262670  4.0937233
Ar -0.6344828  2.3470550  4.0510266
Ar -2.5782989  2.2712509  3.2302618
Ar -1.3808826  3.6107925  3.6860205
Ar -1.0724185  0.9029849  4.7497600
Ar  0.9405344  1.9004652  5.2972086
Ar  0.3184490  2.2419246  4.5127675
Ar -0.1831243  1.4495879  5.1382403
Ar -0.8049692 -1.5000744  9.6813334
Ar -0.4218716 -3.3215123  9.1980081
Ar  3.0051973  3.1933313  9.8799324
Ar  1.0521554  2.7144940 10.6446375
Ar  1.4709530  2.5009653 11.7123356
Ar  0.1130808  1.7514807 15.1657303
Ar  0.1252456  3.8169761 13.2151381
Ar  0.0945621  2.8995395 11.1887667
Ar -0.6475185  3.9644282  0.5410463
Ar  0.1683239  3.2757524  0.7859955
Ar -0.9676141  3.7746756 -0.4953066
Ar -1.3540786  4.0740498  1.3732292
Ar -0.5690493  4.4134948  2.1076736
Ar -1.9076514  2.9987275  2.8744873
Ar -0.4011769  4.7971911  1.1535859
Ar  0.3970210  4.3136905  0.7149228
Ar -1.3917091  1.9486523  4.6857870
Ar -0.2476196  3.2107162  4.4940994
Ar -0.3098395  3.7423827  3.6004110
Ar -2.5580936  3.2573068  3.8394917
Ar -0.5493680  2.4437884  5.2195908
Ar  2.3400333  3.8709877  9.3653733
Ar  2.0044895  4.4088453  8.5264871
Ar  0.0275172  3.5652314  8.6077316
Ar  2.4724452  3.9864224 10.4426126
Ar  3.9849630  3.5442939 10.2459471
Ar  4.0915334  4.2639492  9.0607264
Ar  0.5191395  3.7600349  9.5556140
Ar  1.5092333  4.3198655 11.6099331
Ar  1.0221033  3.5130899 12.7276797
Ar  1.6829616  4.4004780 12.6858268
Ar -0.1066125  4.0906846 11.3798258
Ar -0.3224861  4.7849344 -0.0812287
Ar  0.8651880  5.9963818  1.3732685
Ar  0.3887994  5.4460477  0.5188446
Ar -1.1483795  5.3272407  1.7208050
Ar -1.3127063  4.8684997  0.6598185
Ar -0.8354999  4.5821921  3.1604089
Ar  1.4069348  5.3201280  0.7754325
Ar -1.7136568  6.0686235  3.8317004
Ar  0.4799351  5.8716375  7.5636046
Ar  0.1004713  5.0552753  8.1885555
Ar  1.8591027  7.0062965  8.0801682
Ar -0.9326893  5.1844401  8.7650158
Ar -0.7073553  4.2612355  8.2347164
Ar  1.4225060  4.4213779  9.4280932
Ar  0.7996746  5.2046292  9.0730643
Ar -0.0872122  4.5611994  9.0777871
Ar -1.8659598  6.8970956  8.8692656
Ar  1.4776510  3.4822121 10.0499022
Ar  0.8262271  4.2806200  8.5393617
Ar  1.4224813  3.4511486  8.9632746
Ar -1.4560561  4.7780584 13.0637943
Ar -0.5100379  4.5654969 12.3288215
Ar  0.5813798  4.3953900 12.2112748
Ar -0.8200448  5.6559158 12.8561358
Ar  0.0522944  6.1438354 -0.2219390
Ar  1.3363416  5.4619596 -0.2853864
Ar  0.2399901  5.3669208 -0.9200637
Ar -1.1263090  6.4105240  1.1525242
Ar -0.2720523  5.3889458  2.4395223
Ar -0.2251173  5.8474407  1.4773674
Ar -2.0751734  5.6021751  2.2128232
Ar -2.8707427  6.3863386  2.5003265
Ar -1.8324180  6.4698882  2.8512889
Ar -0.7987635  6.3772453  8.8422833
Ar  0.8458945  6.8878951  8.0107119
Ar  0.0915093  7.5951251  7.2918084
Ar -0.5641767  5.8657381  7.8765704
Ar  0.2554564  6.1045660  8.5780036
Ar -0.1510675  6.4459951 10.0932782
Ar -0.5604616  6.7012529  7.1148278
Ar  0.5376029  4.7185960 10.0055500
Ar  3.6351147  7.1008610 10.5789660
Ar  0.7588585  6.2221916  9.5239595
Ar -2.4674192  8.0391729  8.9703290
Ar -0.3338768  5.2740134 11.5201555
Ar  0.7980287  4.6008641 13.2550422
Ar  0.5870211  5.7980558 11.5749267
Ar -0.1643365  6.3400929 12.1662249
Ar -1.7607950  9.3487509 -2.3488933
Ar  0.0413640  6.5927367  0.7392850
Ar -2.0593905  6.7169372  0.6744878
Ar -3.6667266  6.7184327  0.3603376
Ar -2.0426680  6.6079159  1.7915607
Ar -2.4461759  7.3987065  2.6487627
Ar  1.0086697 14.5996892  1.7578418
Ar -1.7572824  8.8247511  3.7339803
Ar -1.2853165  7.2772379  2.3589431
Ar  1.4216771  7.9992472  8.4596450
Ar  0.3715532  7.7123731  8.4839819
Ar  0.0779987  6.9847273  9.1879374
Ar -0.1833924  6.9290854  8.0690032
Ar -0.8631299  7.4538308  8.8349781
Ar -0.2178759  8.6897578  6.8075863
Ar -1.2188252  8.3946095  6.9196787
Ar -1.2745424  6.8406725  8.0095324
Ar  1.4110333  6.4680919 11.5691960
Ar -0.8774702  7.8278926  7.7749557
Ar -1.4517856  8.3022344  8.5667863
Ar -2.6547395  7.9098549 10.1337050
Ar  2.8150185  6.9408808 13.0511901
Ar -1.7791265  8.5307526 10.3868296
Ar -0.8518080  8.3529824  9.6863721
Ar -1.0911291  9.3337112 -3.3833611
Ar  0.1302382 13.2266755  3.7631019
Ar -1.1721747 15.6293868  0.2537431
Ar -1.3482950 15.4066086  1.5865968
Ar -1.7388932 14.6383094  2.2152102
Ar  1.1213359 13.7399706  4.3533513
Ar -0.6857653 14.7814748  2.1815065
Ar -0.9417906 13.7176101  2.2263079
Ar -0.5270366 14.2405587  3.1673971
Ar  1.7224186 14.6978399  4.8071926
Ar  0.4891947 14.1526236  3.5516221
Ar -0.4496530 15.3143413  3.1000473
Ar -0.4309972  9.6770055  7.2764043
Ar -0.3961396  8.4059609  8.6370084
Ar  0.5294153 15.2401908  3.5361792
Ar  0.0205356 13.9138321  4.6832180
Ar -0.9061923  8.9236736  7.8695475
Ar  5.1921448  8.4808260 10.1926695
Ar -1.1442340 10.8998639  8.7894034
Ar -1.7725078 10.4655117  7.8935408
Ar -0.9357641  9.2233462  8.9783382
Ar  4.9353053  7.4456722 10.5268497
Ar -0.8931480 10.0179315  8.1964622
Ar  0.4505493 14.6313122 14.2852704
Ar -0.6293449  1.2783377  1.0394029
Ar  1.1727165  3.2185800  1.2912467
Ar  2.7321357  4.1333439 -0.8135193
Ar  0.3896383  3.8750188  1.7711946
Ar  0.3955904  2.2872362  2.6243638
Ar  1.2790905  1.6885074  2.7434937
Ar  1.2154454  2.6414080  3.3187118
Ar -0.8581373  2.8540043  3.1535741
Ar  2.8873452  1.9875720  2.7008138
Ar  2.7828034  2.8196796  3.3746456
Ar  2.0734245  2.0447225  3.4071593
Ar  2.9646366  3.9136198  3.1302615
Ar  1.3242505  2.0952433  4.2143437
Ar  4.8260369  2.6377964 11.1969461
Ar  1.9498815  3.1075188  4.0308722
Ar  3.2175496  3.6968507  8.7701301
Ar  5.0161810  3.6572406 10.7348570
Ar  3.7304608  4.1447065 13.0976497
Ar  3.6602270  4.2702914 12.0459051
Ar  3.8384394  2.5597206 10.7985516
Ar  0.4202423  2.5723918 12.2794738
Ar  3.1503947  3.1971040 13.1306400
Ar  3.0768708  3.3247812 10.9213878
Ar  1.8185958  3.3987250 11.0435443
Ar  2.0049146  3.4103871 -1.3563074
Ar  3.3419048  5.0963813 -0.8359011
Ar  4.6561779  4.2943437 -1.0513662
Ar  2.3865606  4.4399001  1.3851841
Ar  3.0549355  5.0725377  2.8642432
Ar  1.8534652  3.5614157  3.0078419
Ar  3.4384404  4.3680673  1.1283885
Ar  1.9355084  5.4062122  2.8443144
Ar  2.2211545  4.4597808  2.4833786
Ar  1.4509629  4.0218818  4.1213835
Ar  1.2326609  4.7811707  3.3313241
Ar  0.4438143  4.3663466  4.0177172
Ar  3.0831752  6.1399823  7.6132236
Ar  4.9214382  3.6913128  9.5907318
Ar  3.4436831  5.7646373  8.5905026
Ar  2.9866385  4.8128140  8.9678724
Ar  3.5111243  4.2966641 10.8948713
Ar  5.7873042  3.1612130 10.2015853
Ar  5.1124149  4.7511926  9.3364331
Ar  3.2616730  4.2571906  9.8173561
Ar  1.4977234  4.5092920 10.5247613
Ar  2.6367231  4.0680470 11.5588239
Ar  2.3909807  4.9266736 10.9963700
Ar  1.5209419  5.5105199 11.0763504
Ar  1.8184708  4.4731281  0.2482282
Ar  3.8142089  3.4486249  0.5695019
Ar  3.2616995  5.3009765 -1.8951376
Ar  2.8343218  4.0341812  0.3154572
Ar  2.5219003  5.2788352  0.7669758
Ar  0.5500503  4.9566811  1.6892742
Ar  2.1143566  6.0868446  0.1586047
Ar  1.0448608  6.3688373  0.3405601
Ar  1.3363481  6.0905746  8.5618522
Ar  1.8037280  5.9278525  7.5927572
Ar  2.8846469  6.7095958  1.7282868
Ar  2.4586752  6.1955572  8.5393196
Ar  1.2451220  5.1369895  8.0748661
Ar  4.5102515  5.1986200  8.5334949
Ar  1.9077842  5.3515470  9.0041218
Ar -0.1473651  5.5912052  9.4005133
Ar  2.3438462  4.8771851  9.8686019
Ar  3.2750859  5.2083535 10.3578905
Ar  4.2241162  7.1294000  9.6748583
Ar  2.2879074  5.8293722 10.3933101
Ar  0.4967129  5.6981216 10.5207034
Ar  4.2608871  5.2060177 12.0138963
Ar  3.1763768  6.1354400 10.8555374
Ar  4.1666256  5.3975583 10.8957562
Ar  0.9219713  6.2510087 -0.8755231
Ar  2.3821417  5.1510958 -0.3184708
Ar  1.3101734  5.2846145 -1.3050559
Ar -0.9772771  6.2962363  2.2209279
Ar  1.6997793  6.9090424 -0.4200223
Ar  0.3284016  6.3448697  2.2498443
Ar  3.1201106  5.9445914 -0.1674843
Ar  2.1997319  7.0627506  0.5849694
Ar  2.3334048  7.1506915  9.0463512
Ar  2.6965394  7.6742633 10.5537569
Ar  3.0184301  6.3070551  0.7816935
Ar  2.3225680  8.1460400  9.6191047
Ar  1.1857327  7.0700462  9.0348183
Ar  1.8426200  6.3040830  9.4906051
Ar  0.7414609  7.1678911 10.0438369
Ar  1.8193465  7.2583249 10.0464659
Ar  1.3590129  5.4327743  9.9583492
Ar  1.3486541  6.3771586 10.5026259
Ar -1.1102941  6.8352839  9.7508876
Ar  2.2296411  6.9160072 12.0643822
Ar  2.3803753  5.9290394 11.5367762
Ar  3.0478797  6.2049145 12.3044055
Ar  3.1633505  6.9836059 11.5031232
Ar  2.0209646  6.0229917 12.5639431
Ar  3.2965377  7.3328491  0.7665103
Ar  5.1259977  6.5654719  0.9591558
Ar  3.5956219  7.7929390 -0.2701248
Ar  3.5650654  5.8742938  2.1301320
Ar  1.3455981  6.9470214  1.3370365
Ar  3.8107750  6.7964181  0.0163449
Ar  4.0221409  6.5870942  1.1424343
Ar  1.2376490 14.0715247  2.7473465
Ar  2.9767064  7.1148986  8.0869903
Ar  2.5507383  8.0855486  8.5823324
Ar  1.8403576  8.9451267  9.0342311
Ar  0.6721350  8.7011183  8.8680032
Ar  1.2175880  8.0521054  9.5744195
Ar  0.5454208  8.2242843 10.4653293
Ar -0.0135666  9.4446992  8.3566180
Ar -0.0234160  9.1289776  9.6298741
Ar  0.1777487  7.9858436  9.4685803
Ar  2.2658501  6.7792013 10.9411898
Ar -0.3528912  7.5145178 10.2733039
Ar  4.5396809  6.4379911 10.6651313
Ar  2.9755853  7.7334218 12.2638496
Ar  3.9175847  6.1956097 11.6203094
Ar  5.7396884  7.8913678 11.0968572
Ar  3.5751412  7.9667221 11.2986372
Ar  4.4965795  7.4163475  0.5823178
Ar  2.0037546 14.1988048  1.3582057
Ar  2.1114621 16.1099040  1.3900256
Ar  0.3147158 14.6605870  2.6107495
Ar  0.0027670 14.0961722  1.7066546
Ar  2.5780036 15.1478714  1.0251901
Ar  1.1644771 15.6931303  1.8151919
Ar  1.4592974 14.6365236  3.7026430
Ar  1.9164331 13.6504012  3.5121443
Ar  0.7457181  9.7758453  9.1044721
Ar  2.2189855 14.4989914  2.8770608
Ar  0.7169651 14.7116140  4.4443140
Ar  0.3275068  8.5613880  7.7815186
Ar  3.9166546 15.9416098 11.8507348
Ar  2.4408139 15.6622808  4.4154002
Ar  0.5009773 16.4267451  5.3712940
Ar -1.6995518  7.7602884  9.5994408
Ar  2.5256161 16.0678440 11.4552547
Ar  4.1175321 16.8014733 12.5336446
Ar  4.0150234 16.9229356 11.4127984
Ar  5.4865894  7.5665724  9.5203806
Ar  4.1126868  8.0987365 12.2208696
Ar  2.5752128 15.9324504 12.5188047
Ar  4.6527092  8.2804783 11.2147051
Ar  1.5357511  2.6885416  0.4641220
Ar  2.8300993  2.7421766  0.5592342
Ar  2.0797016  3.5533537  0.7939816
Ar  1.4980477  1.6685792  0.9537741
Ar  1.9160402  3.6335966  1.8704164
Ar  9.6882513 -1.2804224  4.3017243
Ar  9.1104871  1.3202384  1.4041718
Ar  2.7838707  3.1903388  2.3601545
Ar  9.0538486 -1.6434166  5.1684683
Ar  9.6873582 -2.0961628  6.1468255
Ar  9.4377226 -0.5386651  5.2446792
Ar  1.5875255  2.6942972  5.1125429
Ar  2.5234828  1.2160476  3.9337106
Ar 10.6616695 -1.8178548  6.6818726
Ar  7.0534382  4.8002036  8.4041651
Ar  0.8593724  3.1626113  4.2735011
Ar  5.0112213  3.5114799 11.8434347
Ar 10.0833754  0.4956234  8.1880930
Ar  4.4015382  4.5607871 10.1523917
Ar  3.1085170  3.2485344 12.0725756
Ar  2.0717146  3.4068046 13.1931435
Ar  2.1725424  1.9487384 13.4909267
Ar  7.7106559  3.4768370  9.5565333
Ar  1.4972388  2.5487765 12.8173664
Ar  0.7705072  3.6585615  3.3011478
Ar  1.1035907  3.6695149  0.3079028
Ar  5.8346619  3.0733178 -2.1281280
Ar  2.9492425  3.4577473  1.3528935
Ar  1.3610038  4.2905700  1.2273624
Ar  1.6173347  5.1966876  1.8042648
Ar  3.8664706  3.3506074  1.8806442
Ar  0.2251797  4.4389040  2.8253317
Ar  1.1663379  4.3013087  2.3581025
Ar  4.0625550  5.6603345  7.6899007
Ar  0.7915729  5.4148542  2.6314757
Ar  2.2591931  4.6751438  3.6085345
Ar  2.5953293  5.2538243  8.0474476
Ar  5.0537697  4.1238666  8.4545087
Ar  4.7718569  7.0847372  8.7429476
Ar  3.6363431  4.7207413  8.1182207
Ar  5.5646179  5.0911611  8.3276093
Ar  7.5509964  4.0314715 10.4597137
Ar  7.1611088  6.5041798  9.0162144
Ar  6.6545886  3.7026623  9.7824394
Ar  4.5414912  4.3857551 11.3741265
Ar  7.4956748  3.5041310 12.7095182
Ar  5.6915163  4.2688600 10.1122731
Ar  5.7996250  4.1844829 11.2588215
Ar  5.8716932  3.9762710 -0.9946452
Ar  6.7359060  3.8182243 -1.5766502
Ar  6.4700491  4.8523187 -1.3461749
Ar  4.3595741  5.0287744 -0.3729696
Ar  1.5220343  6.2702892  2.2392806
Ar  7.1993891  6.1507694  7.2240165
Ar  5.4696522  4.7768520 -0.4322698
Ar  2.6629433  5.4120035  1.8056105
Ar  3.9680062  6.6240801  8.1581517
Ar  7.7403131  6.8737176  7.9224524
Ar  8.7073197  7.6697647  6.4191557
Ar  8.5149358  7.5749382  7.5163937
Ar  4.3426121  6.1425856  9.0709482
Ar  3.3461251  6.6686835  9.0722103
Ar  8.8411878  6.6739586  7.9408257
Ar  2.7186718  6.7029850  9.9970011
Ar  2.8919712  5.7358426  9.4687762
Ar  6.2902946  4.7376961  9.1943365
Ar  5.7954581  6.7036356  8.8169122
Ar  3.8714355  5.2283626  9.4589538
Ar  5.1917186  5.0678706 10.7299342
Ar  6.1719902  5.2130166 11.1070895
Ar  6.8259041  5.7979899 10.5911329
Ar  5.3833144  4.9628216 11.8766804
Ar  2.3439387  5.0191585 -1.3853650
Ar  3.3653808  4.9748431  0.1824211
Ar  4.9436499  5.8585139 -1.9457997
Ar  4.8241603  6.5355257 -0.1173185
Ar  2.0231311  6.1392291  1.2364562
Ar  5.6493425  5.5873750  1.2350131
Ar  4.7320151  4.0457076  0.0562251
Ar  3.4993876  5.4449674  1.1360216
Ar  3.9995755  4.8569829  1.8851037
Ar  9.3259472  6.9365209  7.0030692
Ar  5.0814447  4.8191749  1.7307132
Ar 10.2166550  8.5560326  6.9293293
Ar  9.1184010  8.4679180  7.0201710
Ar  9.9259222  6.6813400  7.8997549
Ar  9.8000232  7.7218513  6.3960382
Ar  1.2870313  7.4157354 11.0132197
Ar  5.3804582  5.7623190  9.1411245
Ar  6.2860533  6.3172821  9.6764201
Ar  9.4511704  7.2632215  8.6264806
Ar  3.7375798  6.1678250  9.9869993
Ar  5.6184403  6.0853226 10.6454520
Ar  5.9249861  5.3280192  9.9927928
Ar  4.7096281  5.5954510  9.9523686
Ar  4.0345095  5.9797098 12.7017143
Ar  3.7706787  6.9806652 -1.0303735
Ar  5.9243251  6.2174026  0.2641984
Ar  5.1208221  7.6572707 -1.4534624
Ar  5.5358975  7.3025748  0.1425882
Ar  4.0575427  5.8219487  0.3427481
Ar  4.5421558  3.9589491  1.2701590
Ar  5.1213951  5.5254436  0.3071815
Ar  4.3008369  4.8477146  0.7044588
Ar  4.5774478  5.6659610  1.3361097
Ar  9.6346658  9.9141550  5.8276816
Ar 10.7221580  8.4960802  6.0136953
Ar  1.0702332  9.0331918  9.8683561
Ar  1.7150740  8.3329063 10.5372872
Ar 11.1668760  8.0005142  6.9485764
Ar  9.4963244  9.4512425  6.8244209
Ar  9.0203885 12.5117559  7.5839055
Ar  0.4238304  6.7559855 10.9817008
Ar  7.9485159  7.1615302  9.5341123
Ar  9.5130380 13.0599812  8.4020282
Ar  6.2500143  8.1166256 10.1457705
Ar  4.7747279  6.6723992 12.2743085
Ar  6.4352709  6.5955067 11.2408538
Ar  5.9727150  7.0736141 10.3823984
Ar  4.3426070  7.1910323 11.4302525
Ar  4.6454407  7.4892054 -0.5220833
Ar  6.5830928  7.2471194 -0.3270579
Ar  1.0093659 15.2375363 -0.0257361
Ar  3.1391953 15.9359199  1.7303674
Ar  2.0760044 15.1340965  1.9477034
Ar 10.1041178 11.6296829  5.1646048
Ar  9.9678275 11.0932576  4.2811138
Ar  1.9615098 16.0283729  2.5128745
Ar  9.3069773 10.7844315  5.2217792
Ar 10.3080693 10.5895882  6.4892118
Ar  9.7806678  9.8895507  4.7288626
Ar  8.6027318 11.2330327  5.9251340
Ar  9.2073868 10.5090393  6.6679791
Ar  9.4387933 13.2551131  6.4284980
Ar  9.0109949 12.3000544  6.1428222
Ar 10.9152346 13.6983527  7.5554462
Ar  9.9090504 13.2255200  7.3849595
Ar  7.1221097  6.7867946 10.2593595
Ar  9.7946280 12.2553504  6.9228924
Ar  4.7578573 16.1983322 10.0612882
Ar  5.3925602  6.8592371 11.3943777
Ar  5.1559184  6.5688327  9.7421926
Ar  6.6075504  7.3360885  9.4095329
Ar  0.6013992 15.7794913 14.3226008
Ar  0.5912650  2.8084703 -0.1004701
Ar  9.1728961  0.5428899  0.5903765
Ar 10.8339633  1.0022700  0.2998479
Ar  8.7793251  2.3701694  0.1300884
Ar  9.6652286  0.2800696  1.6336508
Ar  9.7694479 -0.9069453  2.5100979
Ar  9.5625790  1.0517666  2.4156762
Ar  9.1379410  0.0753415  2.6383772
Ar  9.5058498  0.8810942  6.0401249
Ar 10.0617915 -1.0963196  5.9224432
Ar 10.0241480 -1.6972957  3.3330849
Ar 10.7325370 -0.6257980  6.7576421
Ar 12.2818400 -1.3360564  7.4989900
Ar 10.3440886 -0.0490346  5.8669309
Ar 10.1908678  0.6632319  6.8258831
Ar  9.3890535  2.3184845  6.7732634
Ar 11.6441067 -0.4816180  7.2611588
Ar 11.2690123 -0.1053461  9.7973753
Ar 10.3915608  1.7677733  6.6502430
Ar  9.7753440  1.0454722 12.2021030
Ar  8.4028131  1.3158275 13.9319359
Ar 10.0908585  1.0764521 14.5145101
Ar  8.9695920  0.9907365 12.9887933
Ar  9.2239274  1.9689619 12.6834014
Ar  9.5686470  3.0160594 -1.1339435
Ar  8.7988985  3.1810153  0.9401494
Ar  9.1600709  3.4063260 -0.1531940
Ar  8.0965319  3.2794440  0.1116690
Ar  9.0739857  2.2102459  2.0426479
Ar  8.4047954  2.1653071  1.1428519
Ar  7.5958952  4.2890190  0.0735788
Ar  2.6067445  6.2175870  2.6169029
Ar  3.1707880  4.1809124  2.1145909
Ar  9.7103940  1.8888517  5.7276579
Ar  9.0849431  6.4382864  4.7702361
Ar  9.1725428  5.3520716  4.7638188
Ar  6.4822248  5.4320048  7.7243547
Ar  7.8032504  4.0993380  7.6697571
Ar  7.5303478  5.1018020  7.3979542
Ar  6.9480891  3.7819530  8.7344228
Ar  6.4153545  5.7352426  8.7482071
Ar  8.9679454  3.9809786  8.2843097
Ar  7.5105786  5.7807889  8.2638579
Ar  7.3025028  4.5005014  9.4951821
Ar  5.8736524  3.7877780  9.0709838
Ar  9.4647582  1.5511431 13.7404676
Ar  7.6353718  5.1010478 10.4039202
Ar  6.6128143  3.6317599 10.8415802
Ar  8.4244914  4.0184549 -0.6713215
Ar  9.3324612  4.0760147  1.2531609
Ar  7.4763230  4.4853026 -1.1365142
Ar  7.8323683  3.8405604  1.0892332
Ar  6.9014904  4.4554435  0.9412867
Ar  9.9647322  6.5485081  4.1939419
Ar  9.1017771  7.0445091  3.6937449
Ar  8.4590589  5.7883918  5.4772546
Ar  8.2789857  6.7987927  5.8582932
Ar  9.1792052  4.2249466  5.2121127
Ar 10.1253666  6.5843257  6.2869609
Ar  8.1335696  6.7435325  6.9042264
Ar  7.9387427  5.6137989  6.4703269
Ar  8.2669045  5.8798654  7.5525120
Ar  8.8589636  6.1390290  6.4522522
Ar  6.5874379  6.6415155  8.1096558
Ar  4.9697664  6.1433856  8.0971513
Ar  8.0231673  4.1613693  8.7625866
Ar  8.2716071  6.3653172  8.8252723
Ar  7.0256845  5.5084190  9.5724903
Ar  6.6764231  4.6259570 10.3401798
Ar  8.5130042  2.9402509 12.5684114
Ar  7.1764155  5.4978435 12.6230373
Ar  7.1502587  4.6836805 11.2951890
Ar  6.6035770  4.4947617 -0.3686936
Ar  8.7873924  6.5167512  2.5750884
Ar  7.7653841  7.0105873 -0.2772669
Ar  5.0851809  5.7049033 -0.8531059
Ar  5.3407181  4.5735488  0.7319752
Ar  9.4673548  7.4355210  4.7014137
Ar 11.3081136  7.4321047  5.1961928
Ar  9.0395619  8.0376502  5.4718878
Ar  9.6699471  8.7644882  5.9731438
Ar  9.2882609  7.0139403  5.7405382
Ar 10.1813268  7.8605853  5.3762069
Ar 10.8127291  7.3876350  6.1370809
Ar  9.3308061  5.8711418  7.3923002
Ar 11.9672002  7.2478269  7.0410363
Ar 10.4562803  7.2213508  7.1425492
Ar  9.6029107  7.7291243  7.6591010
Ar  8.9176315  8.2973488  8.2818504
Ar  7.9792764  5.3074672  9.1190532
Ar 10.5906554  7.2211140  8.5585346
Ar  8.4040582  7.4189204  8.6083952
Ar  7.9560219  6.0993361  9.9254459
Ar  7.9764412  5.3473825 11.8715902
Ar  8.9374590  5.7627225  9.5345755
Ar  8.0525731  5.9083778 10.9671331
Ar  5.9189922  5.9138943 -1.5797919
Ar  7.2293133  5.2910697  0.1860902
Ar  6.9809044  6.2983398 -0.1078472
Ar  6.1767121  7.3596296 -1.5442400
Ar  6.1685853  5.1440754  0.3557384
Ar 10.9725435  8.4762793  4.8740441
Ar  9.8358978  8.1764441  3.9705199
Ar  9.8355408  8.7651503  4.8972729
Ar 11.7714568  7.9572000  6.0881366
Ar 12.6162656  8.5607008  5.8151068
Ar 11.7747810 10.5390836  4.1490739
Ar 10.5935579  9.4464581  5.3886330
Ar 10.4998183  9.5034715  6.4339312
Ar 11.4298824  8.9835634  6.6694628
Ar 11.9477814  9.5614833  7.3647939
Ar  9.7238570  8.9871119  7.8584378
Ar  9.2534950  7.4325183 10.3941279
Ar  8.9993513  7.8965369  9.3546823
Ar 10.0136718  7.4544563  9.5331359
Ar  7.8070137  7.7968320 11.3810490
Ar  8.1637351  7.0214949 10.5581199
Ar  7.0120009  5.7281056 11.6019852
Ar  7.4970636  6.7688771 11.3911832
Ar  6.7903035  7.5876676 11.0172735
Ar  5.7626334  6.7109288 -0.7563965
Ar  5.8079559  7.9393361 -0.6816429
Ar 10.2586068 13.5475460  0.6331907
Ar 10.3338588 12.9112357  1.5281206
Ar 11.1789375 11.9453164  3.1588087
Ar 10.9254696 12.6482581  2.3694980
Ar 10.8115717 13.8946876  1.4607826
Ar 10.8922359 10.9966301  3.6942583
Ar 10.7890232 10.2498241  4.4442534
Ar 10.4468397 10.5403233  5.4337591
Ar 11.0765042 11.2576450  4.7907673
Ar  8.8755167 11.5847628  6.9559704
Ar 11.1297799 10.2086704  7.0245611
Ar  9.8428420 11.2362131  7.2484649
Ar 11.7143586 12.1777534  6.5032337
Ar 10.9922591 12.0961239  7.5541544
Ar  9.8757862 12.0498098  8.0124569
Ar  9.3147883 11.2711168  9.2311788
Ar 10.5515463 12.9051511  8.2009271
Ar 11.2973880 13.5381666  8.6827006
Ar  7.5582914  7.9061892 10.2445591
Ar  7.2428877  7.4129590 12.2751766
Ar  9.4767431 12.9240825  9.7358543
Ar 10.2454313 13.5907663 10.2693183
Ar 10.1486849  1.8588801  1.7798593
Ar 10.1573981  1.4310528  3.3194332
Ar 10.8019879  2.9515662  0.2870299
Ar  9.5122990  2.3735445  0.9978461
Ar  9.7648169  0.4560555  3.4185919
Ar 11.1450865 -0.3770954  4.1954965
Ar 11.5605641  0.6297609  4.1885861
Ar 10.4175838 -0.6867545  3.3886789
Ar 10.7226620 -1.4633254  4.1219464
Ar 10.9510813  0.2423301  5.0361710
Ar 10.3071867  1.6110582  4.8774571
Ar  9.8541491  0.4986163  5.0328609
Ar 12.2003291 -0.1937377  6.4003026
Ar 11.4194842  1.4566981  6.3044749
Ar 10.5442734  0.9886526  5.8219638
Ar  9.2623213  2.9904636  5.7304171
Ar 11.1826350  0.3519941  6.5192945
Ar 12.0587385 -2.3970674  9.8625585
Ar 11.6640478 -0.8745511  8.2738948
Ar 10.3635853  2.7336031  7.2004366
Ar 10.4912962 -0.8653388  9.9695285
Ar 11.2647963  1.9855914 13.3141335
Ar  9.8121551 -0.7307025 10.8475432
Ar  9.9841819  0.6660999 13.2616096
Ar  9.8087737  2.5814257 -0.0480661
Ar 10.3981502  3.9221393  1.5032414
Ar  9.2164627  4.9841752  0.7515759
Ar  8.6278426  4.1741506  0.3704321
Ar  9.6037497  3.1536527  1.7388042
Ar 10.0766751 -0.2015011  4.2690520
Ar  9.6156491  4.9390178  1.8256579
Ar  8.8549164  5.8907161  3.7754630
Ar  9.3717571 -0.6269856  3.4962122
Ar 10.8003756  2.0636378  5.6335294
Ar 12.1300280  6.9120102  6.0633512
Ar  9.8665890  4.9742624  5.5442345
Ar  9.6315482  4.4519923  6.6212294
Ar 10.2367359  2.7639734  6.1580602
Ar 10.0413664  3.8265213  5.7715396
Ar  7.9947434  4.4802630  6.5918021
Ar  8.7951154  3.8992310  6.1898296
Ar 10.5987903  3.7193947  6.7163885
Ar  8.9014635  3.7458755  9.3473095
Ar  8.8131333  3.9947538  7.2635877
Ar 10.2423667  1.6868719 13.0210946
Ar 10.5112140  2.7790418 14.8306043
Ar  9.2508590  3.0567439  7.7043323
Ar  9.7395026  4.2518504 13.6244933
Ar  9.0956372  4.9269067 -0.3709578
Ar  8.4119372  4.6674290  1.4766183
Ar  8.2331765  5.2632486  0.5772619
Ar  8.7951455  4.7335811 -1.4054284
Ar  8.2054767  6.6292135  1.7055793
Ar 10.2994109  5.7260754  4.9102766
Ar  9.6921120  6.3036193  3.1603918
Ar 10.7380141  6.1539917  3.4730657
Ar  9.5371357  5.9895292  5.6203314
Ar 11.2290270  4.4377648  7.2706863
Ar 10.2279965  6.7886106  5.2422530
Ar 10.6444385  5.6956708  5.9880728
Ar  8.8997941  4.9570404  5.9803212
Ar  8.7439816  5.0479178  7.0633343
Ar 10.3000983  4.9797108  7.2350952
Ar  9.1215012  5.7523715  8.4694346
Ar  8.3360402  4.9780963  8.1290336
Ar  8.3059945  4.4595101  9.8191859
Ar  9.9146698  5.2478934  9.1082715
Ar  8.9244158  4.8192683  8.9867318
Ar 10.2556989  3.5227208 13.0505214
Ar 10.0016801  5.3706715 13.4579789
Ar  8.2513289  4.5910778 11.1508828
Ar  8.0929242  5.0485120 12.9652649
Ar  8.0096962  6.0183932 -0.1612761
Ar  8.9865065  5.4158145  2.7660884
Ar  8.5667573  6.8154661  0.6342060
Ar  9.0371168  5.8897194  0.1900324
Ar 10.5862251  7.4597125  4.4289121
Ar 10.2242631  7.2048712  3.4064309
Ar  9.6101149  6.0373238  2.0759872
Ar 11.7256547  7.8693843  4.2711899
Ar 12.0327718  6.8613952  4.5223715
Ar 11.2304504  6.5240355  6.6385695
Ar 10.8610416  8.1266106  3.6302029
Ar 11.4595229  9.4763669  4.6707880
Ar 10.3991203  6.0195234  7.1568424
Ar 10.1323741  5.6158842  8.1533683
Ar 11.6296720  8.8900407  5.6062045
Ar 10.6094721  5.8321999  9.7230333
Ar  9.8326691  6.3699208  9.0738545
Ar  9.7052893  5.5163343 10.2168800
Ar  9.9079040  6.5884591 10.1470536
Ar  8.9897889  6.8611644  9.5266767
Ar  8.9955069  6.3139526 10.5759688
Ar  9.0282111  5.5485556 11.4345255
Ar  8.9705957 12.2009616  8.7187654
Ar  7.7952432  6.3620905 12.2990122
Ar  6.6962521  5.9272675  0.9059012
Ar  7.6687370  6.2317598  0.8381129
Ar 11.0795348 14.9581650  1.3588311
Ar  6.1647770  5.6439176 -0.5967327
Ar  9.2932980  6.8234877  1.4442745
Ar 10.5211994  9.1156257  4.1323623
Ar  8.7453120  5.7197999  1.4498131
Ar 10.0610913 10.1431160  3.7117878
Ar 12.4088855  7.6289471  5.1929280
Ar 12.2765979  8.6627106  4.7563119
Ar 11.1946406  9.7614883  3.4990012
Ar 11.4943504  9.8692123  6.0651310
Ar 11.5670847 10.4361402  5.1912082
Ar 10.9212875  6.8973274  9.6357557
Ar 11.3037670 10.9171922  6.1302008
Ar  9.9895377 10.1688434  7.4551295
Ar  9.8916360  8.1906306  8.7758534
Ar 10.2765944 10.6914240  9.3295658
Ar  9.8925665 10.9065850  8.3522893
Ar  9.7556277 11.7955638 10.0521343
Ar  8.5891073  6.5839082 11.6499016
Ar 10.6857793  8.8601575 10.6847923
Ar 11.1599321 10.5987643  9.9152682
Ar  6.7145360  6.4487036 12.3141819
Ar  8.3253491  7.4016268 -1.1588760
Ar 11.9311123 13.9541098  3.1519817
Ar 10.6309624 14.5045591  2.2826048
Ar 11.4767052 13.0074346  1.4593829
Ar 10.2607809 13.5341063  2.5399833
Ar 10.8819764 13.7674655  3.3692253
Ar 12.1964619 12.6786461  4.0390932
Ar 11.5529746 12.9325462  3.1899568
Ar 11.9796128 11.4842793  5.5124414
Ar 12.6216335 11.8148929  4.6727857
Ar 11.7461702 11.6761032  4.0240488
Ar 10.5798781 12.6819713  5.0477679
Ar 11.6471745 11.2810926  7.0859506
Ar 11.3687927 12.9504870  5.8174729
Ar 12.5287048 11.4458420  6.4986339
Ar 10.9749933 11.8664447  5.6861463
Ar  8.9557841 11.3446552  8.0201312
Ar 11.5013145 11.2148845 10.7857656
Ar 10.7289450 11.6759284  8.5573325
Ar 10.3097738 13.3420349  9.1313510
Ar 10.0036232 12.2499966  9.1074474
Ar 10.4543052 15.4721165 14.0947262
Ar 10.7487510 11.5554557  9.6920609
Ar 11.3442273 13.5541410 13.9670040
Ar  9.9407595  2.2861750  2.7858270
Ar 12.9777583  2.3637317  1.0983553
Ar 12.9917371  2.9545322  0.0054532
Ar 10.5398039  3.1435337  2.4014000
Ar 11.2421273  1.2769022  3.1468461
Ar 11.7715387  2.5576596  3.8070217
Ar 11.9205508  2.9071269  1.8165471
Ar 10.4832472  0.8012294  4.2100124
Ar 11.9714885 -0.1420895  4.9015781
Ar 12.1850861  1.3956359  3.7035376
Ar 11.3214734  1.2446568  5.0341685
Ar 11.8167926  0.5350217  5.6782889
Ar 12.3525965 -0.9725314  5.6257289
Ar 11.6899053 -1.9788933  8.1248166
Ar 11.8421213  2.4533800  5.6056492
Ar 11.0596036 -0.5074289 10.8069463
Ar 11.0462638 -0.9296751  9.0985977
Ar 12.0834100 -0.6609969  9.2878652
Ar 12.5616771 -1.5236535  8.5689208
Ar 10.6018355 -1.5230147 10.8076229
Ar 11.5446228 -1.2714962 10.1735864
Ar 13.2459693  3.4536116 12.2664074
Ar 14.3386332  3.4348416 11.6886259
Ar 10.6479247  2.6234877 12.6863178
Ar 11.8075214  1.3047098  0.5948566
Ar 12.2306197  3.1225345  0.7904161
Ar 10.7082364  3.9989145  0.4455221
Ar 11.2402647  4.6765912  1.3517377
Ar 11.2959308  3.4273439  1.0620456
Ar 11.5062971  5.7330177  1.1219344
Ar 11.1201339  4.9739969  0.2991702
Ar 11.3352541  3.7514175  2.0621699
Ar 11.1320760  2.5948523  4.6587144
Ar 12.1151129  3.0593371  4.7104104
Ar 10.2093646  2.3355380  4.0464150
Ar 11.0818317  3.2111771  5.6282146
Ar 10.1138069  2.7564014  5.0632922
Ar 12.3416728  1.5227881  5.6535291
Ar 11.2754115  2.6289334  6.5536116
Ar  9.9535498  3.9447465  7.5732387
Ar  9.5621464  3.3931298  6.7055943
Ar 14.1477654  3.7803814 10.6528073
Ar 10.9153917  3.5136989  7.8101429
Ar  9.8436191  4.1738830  8.9350720
Ar 10.5565971  4.5712009 12.9159148
Ar 11.7544980  2.9613603 13.1894598
Ar  9.5465674  4.1436913 12.5207698
Ar  9.8716779  3.3455576 14.1680348
Ar 10.2520481  4.8985589  0.9156750
Ar 11.7344082  3.9812985  0.2348941
Ar 12.5800203  6.6573045  0.0779696
Ar 11.7850461  5.8890368  0.1010238
Ar  7.4924731  5.2611840  1.3796307
Ar 10.9983747  6.3783811  4.5085395
Ar 11.2763233  4.0534967  3.1726821
Ar  9.9228768  5.4170374  3.8950964
Ar  9.7407679  5.4885149  6.5353468
Ar 10.6601648  4.6831480  6.2543995
Ar 11.2982738  6.4251133  5.5781934
Ar 11.4208212  5.3395016  6.7066089
Ar 10.5658722  4.5821854  8.1916339
Ar 11.8434585  5.8975628  8.3944062
Ar 11.9471403  6.0837474  7.2983210
Ar 11.1130242  5.4810401  7.7443873
Ar  9.4309168  4.8926517  7.9169903
Ar 12.1340879  5.0975359  7.6416159
Ar 10.9430628  3.8780317  8.8993823
Ar  8.6916623  5.2634644 10.4413455
Ar  7.7828174  3.7087850 11.6196179
Ar 14.1260750  4.8284518 11.1444401
Ar  8.8705309  3.7028710 11.7693558
Ar  8.6471927  3.7587795 10.5757902
Ar  8.8251533  6.7405716 -0.4361358
Ar 10.7358683  4.6684321  2.3175153
Ar 10.7245846  6.7161574 -0.2226720
Ar 10.0983683  5.4175886  2.7580024
Ar 11.2206978  5.1517904  3.2722168
Ar 12.2109243  5.5241041  2.9277302
Ar 11.8694432  4.6258698  2.4128403
Ar  9.7580906  7.1307672  2.4032911
Ar 11.2933633  7.0807581  3.6926032
Ar 11.1200863  6.6128007  7.7747018
Ar 12.3597525  7.0263316  3.4321666
Ar 12.3577494 10.5380119  5.8639115
Ar 10.8339220  6.1694755  8.7698067
Ar 11.6652369  4.4616581  8.3515931
Ar 11.6992429  5.9674447  9.4884394
Ar 11.1181717  5.1597839  8.9337032
Ar 10.4778409  4.6332130  9.7550118
Ar  9.8328596  5.1840181 12.3470205
Ar 10.7090311  9.3415303  7.4811318
Ar  9.3015858  4.4994723 11.0285717
Ar  9.3773088  4.5160260  9.9461293
Ar 12.8478294  5.6885885 13.9363626
Ar 10.2699738 10.9252583 10.4611831
Ar  8.8246218  5.7913176 12.4856097
Ar 10.8626280  5.6550089 -0.5496540
Ar 10.6461278  5.9652254  0.5824938
Ar  9.7988370  6.2294942 -0.6942137
Ar  9.7131643  5.8837130  1.0417042
Ar 10.5140717  5.5928195  1.6681776
Ar 10.4155067  6.6693085  1.4305017
Ar 12.0675891 12.6822722  2.3086088
Ar 12.6844058 11.1698146  3.7832065
Ar 12.4124917  9.5808020  4.1176120
Ar 11.8416247  7.9364669  3.1126459
Ar 12.2869915 12.0435912  3.1470424
Ar 12.3968527  9.6649347  5.2767879
Ar 12.4325806  9.4817346  6.3794626
Ar 12.8536648  7.6515805  6.4104901
Ar 11.4258440  7.6033278  8.0020445
Ar 10.5361428  8.1954609  7.8554570
Ar 10.7273330 10.0939476  8.2162607
Ar 10.6588168  9.0082658  8.5436512
Ar 11.5069796  8.6596212  7.7224889
Ar 10.8622301  9.8205079  9.2085452
Ar 10.4677520  8.8295897  9.5766351
Ar 10.2679457  9.8341110 10.0908452
Ar 11.6063869  8.9168772  9.3607933
Ar 10.8785588 10.1606570 10.9424313
Ar 11.3113247 13.6411686  2.3514730
Ar 11.9229380 14.0460433  1.3870480
Ar 13.6480468 13.5771638  2.7050617
Ar 11.4560970 15.8243748  0.8869627
Ar 12.6015478 13.6522963  4.0034336
Ar 11.8509083 10.9380400  3.0695381
Ar 11.9842210 15.5315032  2.7958984
Ar 11.6094291 12.2796599  4.9040828
Ar 12.6967369 13.0996139  3.1172543
Ar 13.1555781 12.2296924  3.8127194
Ar 12.8129296 13.6059857  5.5232646
Ar 12.9823447 12.8843598  4.7198703
Ar 12.6199904 10.7224444  4.8526882
Ar 12.2704028 10.4465649  6.9081837
Ar 13.1857346 14.7845822  4.0679030
Ar 12.6580891 11.1220590  7.7053408
Ar 11.2733316 10.7916330  8.8586151
Ar 11.6496992  9.4804053  8.4044282
Ar 11.7192664 11.7532510  9.1457159
Ar 10.7785181 11.0363297  7.6733689
Ar 12.0575312 10.2387742 10.5879195
Ar 11.3154483  9.5581581 10.1705022
Ar 11.9358325 10.0305062  9.3932482
Ar 11.0969855 15.6904403 15.6141068
